55Z_Org43553
  computed from 7FIH coordinates

 35 38  0  0  0  0  0  0  0  0999 V2000
  138.0790  152.2130  154.1030 C   0  0  0  0  0  0  0  0  0  0  0  0
  138.1190  153.6350  155.9430 N   0  0  0  0  0  0  0  0  0  0  0  0
  139.1290  153.0160  156.4280 C   0  0  0  0  0  0  0  0  0  0  0  0
  139.2040  151.6230  154.7200 C   0  0  0  0  0  0  0  0  0  0  0  0
  135.7550  154.7030  155.5000 C   0  0  0  0  0  0  0  0  0  0  0  0
  134.7360  155.5200  155.4690 C   0  0  0  0  0  0  0  0  0  0  0  0
  134.2990  155.8500  154.2260 C   0  0  0  0  0  0  0  0  0  0  0  0
  135.8960  154.4820  153.1410 C   0  0  0  0  0  0  0  0  0  0  0  0
  134.9560  155.9750  158.0110 C   0  0  0  0  0  0  0  0  0  0  0  0
  134.3560  156.5000  159.3270 C   0  0  0  0  0  0  0  0  0  0  0  0
  138.3540  146.9920  150.0620 C   0  0  0  0  0  0  0  0  0  0  0  0
  139.3390  148.1270  149.8450 C   0  0  0  0  0  0  0  0  0  0  0  0
  140.7180  147.5600  149.5930 C   0  0  0  0  0  0  0  0  0  0  0  0
  138.9320  148.9800  148.6690 C   0  0  0  0  0  0  0  0  0  0  0  0
  139.4260  148.8790  151.0440 N   0  0  0  0  0  0  0  0  0  0  0  0
  138.4200  149.8060  151.3600 C   0  0  0  0  0  0  0  0  0  0  0  0
  137.5300  150.0060  150.7280 O   0  0  0  0  0  0  0  0  0  0  0  0
  138.5050  150.5710  152.5770 C   0  0  0  0  0  0  0  0  0  0  0  0
  137.7780  151.5540  152.9250 C   0  0  0  0  0  0  0  0  0  0  0  0
  137.5400  153.2720  154.7950 C   0  0  0  0  0  0  0  0  0  0  0  0
  139.6720  152.0390  155.8250 N   0  0  0  0  0  0  0  0  0  0  0  0
  139.7360  150.2810  153.6640 S   0  0  0  0  0  0  0  0  0  0  0  0
  139.8520  153.5480  157.9230 S   0  0  0  0  0  0  0  0  0  0  0  0
  138.8550  154.4170  159.1310 C   0  0  0  0  0  0  0  0  0  0  0  0
  136.3390  154.1550  154.3940 C   0  0  0  0  0  0  0  0  0  0  0  0
  134.8430  155.3220  153.0820 C   0  0  0  0  0  0  0  0  0  0  0  0
  134.2310  155.9940  156.7460 N   0  0  0  0  0  0  0  0  0  0  0  0
  136.0290  155.5430  158.0310 O   0  0  0  0  0  0  0  0  0  0  0  0
  135.0030  156.1440  160.5810 N   0  0  0  0  0  0  0  0  0  0  0  0
  134.6070  156.6760  161.7660 C   0  0  0  0  0  0  0  0  0  0  0  0
  135.5600  157.1700  162.5330 C   0  0  0  0  0  0  0  0  0  0  0  0
  136.9450  157.0270  162.1290 O   0  0  0  0  0  0  0  0  0  0  0  0
  137.1210  155.9120  161.2160 C   0  0  0  0  0  0  0  0  0  0  0  0
  136.0740  155.3330  160.7070 C   0  0  0  0  0  0  0  0  0  0  0  0
  136.7240  151.8980  152.0630 N   0  0  0  0  0  0  0  0  0  0  0  0
 23  3  1  0  0  0  0
 14 12  1  0  0  0  0
  7  6  2  0  0  0  0
 12 11  1  0  0  0  0
  3  2  1  0  0  0  0
 26  8  2  0  0  0  0
  9 10  1  0  0  0  0
 31 30  1  0  0  0  0
  9 28  2  0  0  0  0
  4  1  2  0  0  0  0
 21  3  2  0  0  0  0
 22  4  1  0  0  0  0
 21  4  1  0  0  0  0
 32 31  1  0  0  0  0
 20  1  1  0  0  0  0
 19 35  1  0  0  0  0
 22 18  1  0  0  0  0
 34 29  1  0  0  0  0
 27  6  1  0  0  0  0
 19  1  1  0  0  0  0
  9 27  1  0  0  0  0
 12 15  1  0  0  0  0
 25  5  2  0  0  0  0
 19 18  2  0  0  0  0
 32 33  1  0  0  0  0
 20  2  2  0  0  0  0
 16 15  1  0  0  0  0
 25  8  1  0  0  0  0
 26  7  1  0  0  0  0
 29 10  1  0  0  0  0
  5  6  1  0  0  0  0
 18 16  1  0  0  0  0
 30 29  1  0  0  0  0
 23 24  1  0  0  0  0
 12 13  1  0  0  0  0
 20 25  1  0  0  0  0
 17 16  2  0  0  0  0
 33 34  1  0  0  0  0
M  END
$$$$
