55Z_Org43553


 39 42  0  0  0  0  0  0  0  0999 V2000
  136.2659  155.1729  156.8868 C   0  0  0  0  0  0  0  0  0  0  0  0
  136.8804  154.9991  154.6504 N   0  0  0  0  0  0  0  0  0  0  0  0
  135.8124  155.6036  154.2864 C   0  0  0  0  0  0  0  0  0  0  0  0
  135.1375  155.8481  156.3716 C   0  0  0  0  0  0  0  0  0  0  0  0
  135.1858  155.6143  158.8477 C   0  0  0  0  0  0  0  0  0  0  0  0
  136.1918  155.0992  158.2658 C   0  0  0  0  0  0  0  0  0  0  0  0
  137.1555  154.7400  155.9319 C   0  0  0  0  0  0  0  0  0  0  0  0
  134.9632  156.0335  155.1273 N   0  0  0  0  0  0  0  0  0  0  0  0
  134.1244  156.3158  157.7695 S   0  0  0  0  0  0  0  0  0  0  0  0
  137.1611  154.5019  159.0879 N   0  0  0  0  0  0  0  0  0  0  0  0
  137.9596  154.0885  158.6870 H   0  0  0  0  0  0  0  0  0  0  0  0
  137.0422  154.4966  160.0652 H   0  0  0  0  0  0  0  0  0  0  0  0
  138.5221  152.8376  155.4376 C   0  0  0  0  0  0  0  0  0  0  0  0
  139.5397  152.0191  155.4003 C   0  0  0  0  0  0  0  0  0  0  0  0
  140.6345  152.4281  156.0925 C   0  0  0  0  0  0  0  0  0  0  0  0
  139.5956  154.4146  156.8499 C   0  0  0  0  0  0  0  0  0  0  0  0
  138.4952  154.0040  156.1472 C   0  0  0  0  0  0  0  0  0  0  0  0
  140.6588  153.5856  156.8293 C   0  0  0  0  0  0  0  0  0  0  0  0
  139.6447  150.6943  153.1752 C   0  0  0  0  0  0  0  0  0  0  0  0
  139.3875  150.8126  154.6056 N   0  0  0  0  0  0  0  0  0  0  0  0
  139.9960  151.6307  152.5936 O   0  0  0  0  0  0  0  0  0  0  0  0
  139.0834  150.0023  155.0748 H   0  0  0  0  0  0  0  0  0  0  0  0
  139.4650  149.3781  152.3989 C   0  0  0  0  0  0  0  0  0  0  0  0
  140.5901  148.8568  151.6372 N   0  0  0  0  0  0  0  0  0  0  0  0
  140.4883  147.7229  150.8969 C   0  0  0  0  0  0  0  0  0  0  0  0
  141.4365  146.8226  151.0724 C   0  0  0  0  0  0  0  0  0  0  0  0
  142.5570  147.1284  151.9400 O   0  0  0  0  0  0  0  0  0  0  0  0
  142.7494  148.5610  152.0764 C   0  0  0  0  0  0  0  0  0  0  0  0
  141.8369  149.3725  151.6298 C   0  0  0  0  0  0  0  0  0  0  0  0
  134.8984  156.9871  160.8710 N   0  0  0  0  0  0  0  0  0  0  0  0
  134.9535  155.7220  160.2647 C   0  0  0  0  0  0  0  0  0  0  0  0
  134.8270  154.7610  160.8052 O   0  0  0  0  0  0  0  0  0  0  0  0
  135.0186  157.8002  160.3292 H   0  0  0  0  0  0  0  0  0  0  0  0
  134.5628  155.6871  162.8387 C   0  0  0  0  0  0  0  0  0  0  0  0
  134.6690  157.0896  162.2666 C   0  0  0  0  0  0  0  0  0  0  0  0
  133.3478  157.8061  162.4329 C   0  0  0  0  0  0  0  0  0  0  0  0
  135.7508  157.8780  162.9626 C   0  0  0  0  0  0  0  0  0  0  0  0
  135.5170  155.9283  152.5988 S   0  0  0  0  0  0  0  0  0  0  0  0
  133.9487  155.4657  151.8674 C   0  0  0  0  0  0  0  0  0  0  0  0
 38  3  1  0
 37 35  1  0
 15 14  2  0
 35 34  1  0
  3  2  1  0
 18 16  2  0
 19 23  1  0
 26 25  1  0
 19 21  2  0
  4  1  2  0
  8  3  2  0
  9  4  1  0
  8  4  1  0
 27 26  1  0
  7  1  1  0
  6 10  1  0
  9  5  1  0
 29 24  1  0
 20 14  1  0
  6  1  1  0
 19 20  1  0
 35 30  1  0
 17 13  2  0
  6  5  2  0
 27 28  1  0
  7  2  2  0
 31 30  1  0
 17 16  1  0
 18 15  1  0
 24 23  1  0
 13 14  1  0
  5 31  1  0
 25 24  1  0
 38 39  1  0
 35 36  1  0
  7 17  1  0
 32 31  2  0
 28 29  1  0
 30 33  1  0
 20 22  1  0
 10 11  1  0
 10 12  1  0
M  END
> <minimizedAffinity>
-57.89123

$$$$
55Z_Org43553


 39 42  0  0  0  0  0  0  0  0999 V2000
  136.1804  155.2103  156.7755 C   0  0  0  0  0  0  0  0  0  0  0  0
  136.7490  155.0881  154.5236 N   0  0  0  0  0  0  0  0  0  0  0  0
  135.6862  155.7226  154.1974 C   0  0  0  0  0  0  0  0  0  0  0  0
  135.0557  155.9207  156.3013 C   0  0  0  0  0  0  0  0  0  0  0  0
  135.1464  155.6165  158.7685 C   0  0  0  0  0  0  0  0  0  0  0  0
  136.1310  155.0991  158.1530 C   0  0  0  0  0  0  0  0  0  0  0  0
  137.0433  154.7879  155.7917 C   0  0  0  0  0  0  0  0  0  0  0  0
  134.8615  156.1444  155.0663 N   0  0  0  0  0  0  0  0  0  0  0  0
  134.0785  156.3678  157.7311 S   0  0  0  0  0  0  0  0  0  0  0  0
  137.1040  154.4608  158.9392 N   0  0  0  0  0  0  0  0  0  0  0  0
  137.8867  154.0441  158.5115 H   0  0  0  0  0  0  0  0  0  0  0  0
  137.0035  154.4302  159.9181 H   0  0  0  0  0  0  0  0  0  0  0  0
  138.5221  153.0951  154.9680 C   0  0  0  0  0  0  0  0  0  0  0  0
  139.5641  152.3186  154.8336 C   0  0  0  0  0  0  0  0  0  0  0  0
  140.5553  152.5213  155.7400 C   0  0  0  0  0  0  0  0  0  0  0  0
  139.3678  154.2225  156.8779 C   0  0  0  0  0  0  0  0  0  0  0  0
  138.3724  154.0211  155.9603 C   0  0  0  0  0  0  0  0  0  0  0  0
  140.4534  153.4313  156.7622 C   0  0  0  0  0  0  0  0  0  0  0  0
  138.7760  150.1414  153.6691 C   0  0  0  0  0  0  0  0  0  0  0  0
  139.5475  151.3774  153.7271 N   0  0  0  0  0  0  0  0  0  0  0  0
  138.1141  149.8556  154.5739 O   0  0  0  0  0  0  0  0  0  0  0  0
  140.1072  151.5933  152.9466 H   0  0  0  0  0  0  0  0  0  0  0  0
  138.8052  149.1931  152.4579 C   0  0  0  0  0  0  0  0  0  0  0  0
  140.0523  149.0341  151.7248 N   0  0  0  0  0  0  0  0  0  0  0  0
  140.4470  147.8294  151.2381 C   0  0  0  0  0  0  0  0  0  0  0  0
  141.6855  147.4656  151.5107 C   0  0  0  0  0  0  0  0  0  0  0  0
  142.5630  148.3894  152.2026 O   0  0  0  0  0  0  0  0  0  0  0  0
  142.1296  149.7645  152.0322 C   0  0  0  0  0  0  0  0  0  0  0  0
  140.9636  150.0057  151.5098 C   0  0  0  0  0  0  0  0  0  0  0  0
  134.8353  156.9388  160.8218 N   0  0  0  0  0  0  0  0  0  0  0  0
  134.9430  155.6884  160.1922 C   0  0  0  0  0  0  0  0  0  0  0  0
  134.8811  154.7134  160.7186 O   0  0  0  0  0  0  0  0  0  0  0  0
  134.8988  157.7659  160.2916 H   0  0  0  0  0  0  0  0  0  0  0  0
  135.7707  157.8092  162.8322 C   0  0  0  0  0  0  0  0  0  0  0  0
  134.6346  157.0061  162.2239 C   0  0  0  0  0  0  0  0  0  0  0  0
  134.6896  155.5837  162.7341 C   0  0  0  0  0  0  0  0  0  0  0  0
  133.2967  157.6073  162.5769 C   0  0  0  0  0  0  0  0  0  0  0  0
  135.3652  156.1002  152.5255 S   0  0  0  0  0  0  0  0  0  0  0  0
  133.8578  155.5127  151.7567 C   0  0  0  0  0  0  0  0  0  0  0  0
 38  3  1  0
 37 35  1  0
 15 14  2  0
 35 34  1  0
  3  2  1  0
 18 16  2  0
 19 23  1  0
 26 25  1  0
 19 21  2  0
  4  1  2  0
  8  3  2  0
  9  4  1  0
  8  4  1  0
 27 26  1  0
  7  1  1  0
  6 10  1  0
  9  5  1  0
 29 24  1  0
 20 14  1  0
  6  1  1  0
 19 20  1  0
 35 30  1  0
 17 13  2  0
  6  5  2  0
 27 28  1  0
  7  2  2  0
 31 30  1  0
 17 16  1  0
 18 15  1  0
 24 23  1  0
 13 14  1  0
  5 31  1  0
 25 24  1  0
 38 39  1  0
 35 36  1  0
  7 17  1  0
 32 31  2  0
 28 29  1  0
 30 33  1  0
 20 22  1  0
 10 11  1  0
 10 12  1  0
M  END
> <minimizedAffinity>
-56.86742

$$$$
55Z_Org43553


 39 42  0  0  0  0  0  0  0  0999 V2000
  136.4736  155.3280  156.4075 C   0  0  0  0  0  0  0  0  0  0  0  0
  136.5998  154.8427  154.1364 N   0  0  0  0  0  0  0  0  0  0  0  0
  135.6740  155.6889  153.8810 C   0  0  0  0  0  0  0  0  0  0  0  0
  135.4806  156.2482  156.0054 C   0  0  0  0  0  0  0  0  0  0  0  0
  135.9233  156.1780  158.4522 C   0  0  0  0  0  0  0  0  0  0  0  0
  136.6387  155.3705  157.7799 C   0  0  0  0  0  0  0  0  0  0  0  0
  137.0309  154.6058  155.3786 C   0  0  0  0  0  0  0  0  0  0  0  0
  135.1333  156.3894  154.7919 N   0  0  0  0  0  0  0  0  0  0  0  0
  134.8968  157.0672  157.4844 S   0  0  0  0  0  0  0  0  0  0  0  0
  137.5573  154.5891  158.4995 N   0  0  0  0  0  0  0  0  0  0  0  0
  138.1353  153.9479  158.0261 H   0  0  0  0  0  0  0  0  0  0  0  0
  137.6233  154.6824  159.4773 H   0  0  0  0  0  0  0  0  0  0  0  0
  138.2898  152.9002  154.2663 C   0  0  0  0  0  0  0  0  0  0  0  0
  139.1809  151.9755  154.0260 C   0  0  0  0  0  0  0  0  0  0  0  0
  140.0335  151.7159  155.0510 C   0  0  0  0  0  0  0  0  0  0  0  0
  139.0082  153.2847  156.4956 C   0  0  0  0  0  0  0  0  0  0  0  0
  138.1535  153.5494  155.4599 C   0  0  0  0  0  0  0  0  0  0  0  0
  139.9359  152.3318  156.2736 C   0  0  0  0  0  0  0  0  0  0  0  0
  139.5924  150.0208  152.3747 C   0  0  0  0  0  0  0  0  0  0  0  0
  139.1713  151.3779  152.7019 N   0  0  0  0  0  0  0  0  0  0  0  0
  139.9800  149.3382  153.2245 O   0  0  0  0  0  0  0  0  0  0  0  0
  138.8520  151.9395  151.9590 H   0  0  0  0  0  0  0  0  0  0  0  0
  139.5501  149.4536  150.9450 C   0  0  0  0  0  0  0  0  0  0  0  0
  139.5473  148.0093  150.7660 N   0  0  0  0  0  0  0  0  0  0  0  0
  140.6548  147.3373  150.3587 C   0  0  0  0  0  0  0  0  0  0  0  0
  140.4910  146.4902  149.3607 C   0  0  0  0  0  0  0  0  0  0  0  0
  139.1589  146.2523  148.8400 O   0  0  0  0  0  0  0  0  0  0  0  0
  138.1385  146.5716  149.8221 C   0  0  0  0  0  0  0  0  0  0  0  0
  138.4734  147.2048  150.9072 C   0  0  0  0  0  0  0  0  0  0  0  0
  134.8535  156.2587  160.6681 N   0  0  0  0  0  0  0  0  0  0  0  0
  135.9917  156.4404  159.8665 C   0  0  0  0  0  0  0  0  0  0  0  0
  136.9779  156.7807  160.2448 O   0  0  0  0  0  0  0  0  0  0  0  0
  134.0090  155.9527  160.2649 H   0  0  0  0  0  0  0  0  0  0  0  0
  134.1455  157.7880  162.3516 C   0  0  0  0  0  0  0  0  0  0  0  0
  134.9243  156.5175  162.0605 C   0  0  0  0  0  0  0  0  0  0  0  0
  136.3858  156.7339  162.3829 C   0  0  0  0  0  0  0  0  0  0  0  0
  134.4025  155.3627  162.8791 C   0  0  0  0  0  0  0  0  0  0  0  0
  135.1656  155.9668  152.2363 S   0  0  0  0  0  0  0  0  0  0  0  0
  133.6888  155.1647  151.6164 C   0  0  0  0  0  0  0  0  0  0  0  0
 38  3  1  0
 37 35  1  0
 15 14  2  0
 35 34  1  0
  3  2  1  0
 18 16  2  0
 19 23  1  0
 26 25  1  0
 19 21  2  0
  4  1  2  0
  8  3  2  0
  9  4  1  0
  8  4  1  0
 27 26  1  0
  7  1  1  0
  6 10  1  0
  9  5  1  0
 29 24  1  0
 20 14  1  0
  6  1  1  0
 19 20  1  0
 35 30  1  0
 17 13  2  0
  6  5  2  0
 27 28  1  0
  7  2  2  0
 31 30  1  0
 17 16  1  0
 18 15  1  0
 24 23  1  0
 13 14  1  0
  5 31  1  0
 25 24  1  0
 38 39  1  0
 35 36  1  0
  7 17  1  0
 32 31  2  0
 28 29  1  0
 30 33  1  0
 20 22  1  0
 10 11  1  0
 10 12  1  0
M  END
> <minimizedAffinity>
-56.04401

$$$$
55Z_Org43553


 39 42  0  0  0  0  0  0  0  0999 V2000
  135.8999  153.7728  153.6987 C   0  0  0  0  0  0  0  0  0  0  0  0
  135.9825  152.0791  152.1069 N   0  0  0  0  0  0  0  0  0  0  0  0
  134.9324  152.5350  151.5343 C   0  0  0  0  0  0  0  0  0  0  0  0
  134.7654  154.1980  152.9731 C   0  0  0  0  0  0  0  0  0  0  0  0
  135.3342  155.5936  154.9521 C   0  0  0  0  0  0  0  0  0  0  0  0
  136.1248  154.6145  154.7727 C   0  0  0  0  0  0  0  0  0  0  0  0
  136.5044  152.6429  153.2000 C   0  0  0  0  0  0  0  0  0  0  0  0
  134.3416  153.5807  151.9472 N   0  0  0  0  0  0  0  0  0  0  0  0
  134.1430  155.6640  153.7871 S   0  0  0  0  0  0  0  0  0  0  0  0
  137.1815  154.4786  155.6878 N   0  0  0  0  0  0  0  0  0  0  0  0
  137.8221  153.7370  155.5933 H   0  0  0  0  0  0  0  0  0  0  0  0
  137.2815  155.1248  156.4237 H   0  0  0  0  0  0  0  0  0  0  0  0
  138.2444  151.0482  152.7999 C   0  0  0  0  0  0  0  0  0  0  0  0
  139.3221  150.3257  152.9529 C   0  0  0  0  0  0  0  0  0  0  0  0
  140.0043  150.5448  154.1068 C   0  0  0  0  0  0  0  0  0  0  0  0
  138.4539  152.1512  154.8911 C   0  0  0  0  0  0  0  0  0  0  0  0
  137.7708  151.9336  153.7252 C   0  0  0  0  0  0  0  0  0  0  0  0
  139.5689  151.4154  155.0742 C   0  0  0  0  0  0  0  0  0  0  0  0
  140.9979  149.2496  151.2943 C   0  0  0  0  0  0  0  0  0  0  0  0
  139.6695  149.4211  151.8705 N   0  0  0  0  0  0  0  0  0  0  0  0
  141.8716  149.8825  151.7119 O   0  0  0  0  0  0  0  0  0  0  0  0
  138.9429  148.8750  151.4922 H   0  0  0  0  0  0  0  0  0  0  0  0
  141.2920  148.2658  150.1483 C   0  0  0  0  0  0  0  0  0  0  0  0
  140.4316  147.1032  149.9874 N   0  0  0  0  0  0  0  0  0  0  0  0
  140.2812  146.4857  148.7873 C   0  0  0  0  0  0  0  0  0  0  0  0
  139.0417  146.2500  148.4020 C   0  0  0  0  0  0  0  0  0  0  0  0
  137.9461  146.5576  149.3004 O   0  0  0  0  0  0  0  0  0  0  0  0
  138.3844  146.5871  150.6842 C   0  0  0  0  0  0  0  0  0  0  0  0
  139.6567  146.5630  150.9509 C   0  0  0  0  0  0  0  0  0  0  0  0
  135.2595  156.3147  157.3049 N   0  0  0  0  0  0  0  0  0  0  0  0
  135.4337  156.6292  155.9477 C   0  0  0  0  0  0  0  0  0  0  0  0
  135.6514  157.6468  155.5623 O   0  0  0  0  0  0  0  0  0  0  0  0
  135.0691  155.3878  157.5767 H   0  0  0  0  0  0  0  0  0  0  0  0
  136.4682  156.9670  159.2511 C   0  0  0  0  0  0  0  0  0  0  0  0
  135.3586  157.3368  158.2827 C   0  0  0  0  0  0  0  0  0  0  0  0
  134.0352  157.3611  159.0139 C   0  0  0  0  0  0  0  0  0  0  0  0
  135.6077  158.6904  157.6648 C   0  0  0  0  0  0  0  0  0  0  0  0
  134.3082  151.7651  150.0995 S   0  0  0  0  0  0  0  0  0  0  0  0
  132.6144  152.0623  149.5984 C   0  0  0  0  0  0  0  0  0  0  0  0
 38  3  1  0
 37 35  1  0
 15 14  2  0
 35 34  1  0
  3  2  1  0
 18 16  2  0
 19 23  1  0
 26 25  1  0
 19 21  2  0
  4  1  2  0
  8  3  2  0
  9  4  1  0
  8  4  1  0
 27 26  1  0
  7  1  1  0
  6 10  1  0
  9  5  1  0
 29 24  1  0
 20 14  1  0
  6  1  1  0
 19 20  1  0
 35 30  1  0
 17 13  2  0
  6  5  2  0
 27 28  1  0
  7  2  2  0
 31 30  1  0
 17 16  1  0
 18 15  1  0
 24 23  1  0
 13 14  1  0
  5 31  1  0
 25 24  1  0
 38 39  1  0
 35 36  1  0
  7 17  1  0
 32 31  2  0
 28 29  1  0
 30 33  1  0
 20 22  1  0
 10 11  1  0
 10 12  1  0
M  END
> <minimizedAffinity>
-56.01696

$$$$
55Z_Org43553


 39 42  0  0  0  0  0  0  0  0999 V2000
  137.7792  153.2364  154.1396 C   0  0  0  0  0  0  0  0  0  0  0  0
  137.0392  155.2249  155.0921 N   0  0  0  0  0  0  0  0  0  0  0  0
  136.1743  155.3757  154.1607 C   0  0  0  0  0  0  0  0  0  0  0  0
  136.7754  153.4941  153.1802 C   0  0  0  0  0  0  0  0  0  0  0  0
  138.0869  151.4148  152.8005 C   0  0  0  0  0  0  0  0  0  0  0  0
  138.4438  152.0627  153.8343 C   0  0  0  0  0  0  0  0  0  0  0  0
  137.8796  154.1871  155.1281 C   0  0  0  0  0  0  0  0  0  0  0  0
  136.0324  154.5229  153.2303 N   0  0  0  0  0  0  0  0  0  0  0  0
  136.8210  152.1496  152.0014 S   0  0  0  0  0  0  0  0  0  0  0  0
  139.4897  151.5148  154.5947 N   0  0  0  0  0  0  0  0  0  0  0  0
  139.8039  151.9775  155.4049 H   0  0  0  0  0  0  0  0  0  0  0  0
  139.9086  150.6681  154.3176 H   0  0  0  0  0  0  0  0  0  0  0  0
  138.1443  154.3936  157.4983 C   0  0  0  0  0  0  0  0  0  0  0  0
  138.6858  154.4197  158.6870 C   0  0  0  0  0  0  0  0  0  0  0  0
  140.0234  154.1856  158.7167 C   0  0  0  0  0  0  0  0  0  0  0  0
  140.1868  153.9701  156.3659 C   0  0  0  0  0  0  0  0  0  0  0  0
  138.8380  154.2002  156.3381 C   0  0  0  0  0  0  0  0  0  0  0  0
  140.7702  153.9945  157.5812 C   0  0  0  0  0  0  0  0  0  0  0  0
  137.7090  155.8863  160.5875 C   0  0  0  0  0  0  0  0  0  0  0  0
  137.7972  154.6547  159.8120 N   0  0  0  0  0  0  0  0  0  0  0  0
  138.4016  156.7701  160.3090 O   0  0  0  0  0  0  0  0  0  0  0  0
  137.2013  153.9162  160.0743 H   0  0  0  0  0  0  0  0  0  0  0  0
  136.7374  156.0643  161.7673 C   0  0  0  0  0  0  0  0  0  0  0  0
  135.3094  156.1248  161.4934 N   0  0  0  0  0  0  0  0  0  0  0  0
  134.8289  156.2669  160.2313 C   0  0  0  0  0  0  0  0  0  0  0  0
  133.9206  157.2071  160.0536 C   0  0  0  0  0  0  0  0  0  0  0  0
  133.4236  157.9427  161.1998 O   0  0  0  0  0  0  0  0  0  0  0  0
  133.5998  157.1933  162.4307 C   0  0  0  0  0  0  0  0  0  0  0  0
  134.3326  156.1193  162.4243 C   0  0  0  0  0  0  0  0  0  0  0  0
  139.3586  150.0628  151.1830 N   0  0  0  0  0  0  0  0  0  0  0  0
  138.5831  150.1399  152.3509 C   0  0  0  0  0  0  0  0  0  0  0  0
  138.3106  149.2687  152.9819 O   0  0  0  0  0  0  0  0  0  0  0  0
  139.5633  150.8785  150.6712 H   0  0  0  0  0  0  0  0  0  0  0  0
  140.8268  148.2839  151.7782 C   0  0  0  0  0  0  0  0  0  0  0  0
  139.8460  148.8059  150.7433 C   0  0  0  0  0  0  0  0  0  0  0  0
  140.5707  149.0585  149.4404 C   0  0  0  0  0  0  0  0  0  0  0  0
  138.7315  147.8170  150.5061 C   0  0  0  0  0  0  0  0  0  0  0  0
  135.0926  156.7434  154.1775 S   0  0  0  0  0  0  0  0  0  0  0  0
  133.6871  156.7770  153.0676 C   0  0  0  0  0  0  0  0  0  0  0  0
 38  3  1  0
 37 35  1  0
 15 14  2  0
 35 34  1  0
  3  2  1  0
 18 16  2  0
 19 23  1  0
 26 25  1  0
 19 21  2  0
  4  1  2  0
  8  3  2  0
  9  4  1  0
  8  4  1  0
 27 26  1  0
  7  1  1  0
  6 10  1  0
  9  5  1  0
 29 24  1  0
 20 14  1  0
  6  1  1  0
 19 20  1  0
 35 30  1  0
 17 13  2  0
  6  5  2  0
 27 28  1  0
  7  2  2  0
 31 30  1  0
 17 16  1  0
 18 15  1  0
 24 23  1  0
 13 14  1  0
  5 31  1  0
 25 24  1  0
 38 39  1  0
 35 36  1  0
  7 17  1  0
 32 31  2  0
 28 29  1  0
 30 33  1  0
 20 22  1  0
 10 11  1  0
 10 12  1  0
M  END
> <minimizedAffinity>
-55.68149

$$$$
55Z_Org43553


 39 42  0  0  0  0  0  0  0  0999 V2000
  138.3268  151.5804  153.0433 C   0  0  0  0  0  0  0  0  0  0  0  0
  140.5637  151.0834  153.4416 N   0  0  0  0  0  0  0  0  0  0  0  0
  140.6368  150.4275  152.3448 C   0  0  0  0  0  0  0  0  0  0  0  0
  138.5307  150.8544  151.8492 C   0  0  0  0  0  0  0  0  0  0  0  0
  136.2299  151.7476  152.1594 C   0  0  0  0  0  0  0  0  0  0  0  0
  137.0206  152.0290  153.1142 C   0  0  0  0  0  0  0  0  0  0  0  0
  139.4348  151.6674  153.8530 C   0  0  0  0  0  0  0  0  0  0  0  0
  139.6472  150.3250  151.5554 N   0  0  0  0  0  0  0  0  0  0  0  0
  136.9792  150.8648  150.9593 S   0  0  0  0  0  0  0  0  0  0  0  0
  136.4935  152.7933  154.1679 N   0  0  0  0  0  0  0  0  0  0  0  0
  137.0643  153.0383  154.9317 H   0  0  0  0  0  0  0  0  0  0  0  0
  135.5533  153.0840  154.1428 H   0  0  0  0  0  0  0  0  0  0  0  0
  138.4381  153.1230  155.4714 C   0  0  0  0  0  0  0  0  0  0  0  0
  138.2497  153.8242  156.5575 C   0  0  0  0  0  0  0  0  0  0  0  0
  139.2576  153.7626  157.4659 C   0  0  0  0  0  0  0  0  0  0  0  0
  140.5879  152.3484  156.1134 C   0  0  0  0  0  0  0  0  0  0  0  0
  139.5689  152.4066  155.2016 C   0  0  0  0  0  0  0  0  0  0  0  0
  140.4187  153.0661  157.2422 C   0  0  0  0  0  0  0  0  0  0  0  0
  136.5141  155.5786  155.7657 C   0  0  0  0  0  0  0  0  0  0  0  0
  136.9904  154.5395  156.6710 N   0  0  0  0  0  0  0  0  0  0  0  0
  137.1810  155.8865  154.8719 O   0  0  0  0  0  0  0  0  0  0  0  0
  136.4062  154.3014  157.4269 H   0  0  0  0  0  0  0  0  0  0  0  0
  135.1626  156.2914  155.9475 C   0  0  0  0  0  0  0  0  0  0  0  0
  134.4227  156.0819  157.1830 N   0  0  0  0  0  0  0  0  0  0  0  0
  134.0908  157.1136  158.0012 C   0  0  0  0  0  0  0  0  0  0  0  0
  134.3747  156.9603  159.2805 C   0  0  0  0  0  0  0  0  0  0  0  0
  134.9117  155.6959  159.7441 O   0  0  0  0  0  0  0  0  0  0  0  0
  134.5710  154.6100  158.8427 C   0  0  0  0  0  0  0  0  0  0  0  0
  134.0541  154.8834  157.6814 C   0  0  0  0  0  0  0  0  0  0  0  0
  134.5864  153.5400  151.7752 N   0  0  0  0  0  0  0  0  0  0  0  0
  134.8670  152.1817  151.9936 C   0  0  0  0  0  0  0  0  0  0  0  0
  134.0982  151.3834  152.0502 O   0  0  0  0  0  0  0  0  0  0  0  0
  135.3197  154.1957  151.7355 H   0  0  0  0  0  0  0  0  0  0  0  0
  133.2432  155.4554  151.3265 C   0  0  0  0  0  0  0  0  0  0  0  0
  133.2432  153.9641  151.6120 C   0  0  0  0  0  0  0  0  0  0  0  0
  132.5469  153.7000  152.9281 C   0  0  0  0  0  0  0  0  0  0  0  0
  132.5374  153.2030  150.5171 C   0  0  0  0  0  0  0  0  0  0  0  0
  142.1439  149.7012  151.8529 S   0  0  0  0  0  0  0  0  0  0  0  0
  142.3170  147.9185  151.8695 C   0  0  0  0  0  0  0  0  0  0  0  0
 38  3  1  0
 37 35  1  0
 15 14  2  0
 35 34  1  0
  3  2  1  0
 18 16  2  0
 19 23  1  0
 26 25  1  0
 19 21  2  0
  4  1  2  0
  8  3  2  0
  9  4  1  0
  8  4  1  0
 27 26  1  0
  7  1  1  0
  6 10  1  0
  9  5  1  0
 29 24  1  0
 20 14  1  0
  6  1  1  0
 19 20  1  0
 35 30  1  0
 17 13  2  0
  6  5  2  0
 27 28  1  0
  7  2  2  0
 31 30  1  0
 17 16  1  0
 18 15  1  0
 24 23  1  0
 13 14  1  0
  5 31  1  0
 25 24  1  0
 38 39  1  0
 35 36  1  0
  7 17  1  0
 32 31  2  0
 28 29  1  0
 30 33  1  0
 20 22  1  0
 10 11  1  0
 10 12  1  0
M  END
> <minimizedAffinity>
-55.18206

$$$$
55Z_Org43553


 39 42  0  0  0  0  0  0  0  0999 V2000
  138.4995  152.3884  153.9393 C   0  0  0  0  0  0  0  0  0  0  0  0
  138.4812  153.9384  155.6732 N   0  0  0  0  0  0  0  0  0  0  0  0
  139.4628  153.3465  156.2430 C   0  0  0  0  0  0  0  0  0  0  0  0
  139.5908  151.8338  154.6434 C   0  0  0  0  0  0  0  0  0  0  0  0
  138.9677  150.6372  152.5536 C   0  0  0  0  0  0  0  0  0  0  0  0
  138.2391  151.6493  152.7998 C   0  0  0  0  0  0  0  0  0  0  0  0
  137.9455  153.4993  154.5307 C   0  0  0  0  0  0  0  0  0  0  0  0
  140.0181  152.3238  155.7345 N   0  0  0  0  0  0  0  0  0  0  0  0
  140.1493  150.4146  153.7091 S   0  0  0  0  0  0  0  0  0  0  0  0
  137.2257  151.9403  151.8720 N   0  0  0  0  0  0  0  0  0  0  0  0
  136.6337  152.7135  152.0161 H   0  0  0  0  0  0  0  0  0  0  0  0
  137.1074  151.3710  151.0776 H   0  0  0  0  0  0  0  0  0  0  0  0
  136.2363  155.0976  155.0356 C   0  0  0  0  0  0  0  0  0  0  0  0
  135.2509  155.9440  154.8955 C   0  0  0  0  0  0  0  0  0  0  0  0
  134.8004  156.0992  153.6236 C   0  0  0  0  0  0  0  0  0  0  0  0
  136.3160  154.5133  152.7365 C   0  0  0  0  0  0  0  0  0  0  0  0
  136.7729  154.3623  154.0178 C   0  0  0  0  0  0  0  0  0  0  0  0
  135.2971  155.3796  152.5658 C   0  0  0  0  0  0  0  0  0  0  0  0
  134.2554  155.9911  157.2880 C   0  0  0  0  0  0  0  0  0  0  0  0
  134.7940  156.6289  156.0924 N   0  0  0  0  0  0  0  0  0  0  0  0
  134.1658  154.8380  157.3112 O   0  0  0  0  0  0  0  0  0  0  0  0
  134.8532  157.6116  156.0967 H   0  0  0  0  0  0  0  0  0  0  0  0
  133.7939  156.7840  158.5233 C   0  0  0  0  0  0  0  0  0  0  0  0
  134.7630  157.0744  159.5694 N   0  0  0  0  0  0  0  0  0  0  0  0
  136.0793  157.2612  159.2926 C   0  0  0  0  0  0  0  0  0  0  0  0
  136.9346  156.5793  160.0303 C   0  0  0  0  0  0  0  0  0  0  0  0
  136.4420  155.7746  161.1311 O   0  0  0  0  0  0  0  0  0  0  0  0
  135.1477  156.2413  161.5944 C   0  0  0  0  0  0  0  0  0  0  0  0
  134.4978  157.1212  160.8915 C   0  0  0  0  0  0  0  0  0  0  0  0
  138.7368  148.4042  151.5427 N   0  0  0  0  0  0  0  0  0  0  0  0
  138.9234  149.7876  151.3918 C   0  0  0  0  0  0  0  0  0  0  0  0
  139.0430  150.3018  150.4157 O   0  0  0  0  0  0  0  0  0  0  0  0
  138.6365  148.0144  152.4412 H   0  0  0  0  0  0  0  0  0  0  0  0
  140.1143  147.1709  150.0408 C   0  0  0  0  0  0  0  0  0  0  0  0
  138.6933  147.5705  150.3966 C   0  0  0  0  0  0  0  0  0  0  0  0
  138.1072  148.4056  149.2804 C   0  0  0  0  0  0  0  0  0  0  0  0
  137.8266  146.3546  150.6125 C   0  0  0  0  0  0  0  0  0  0  0  0
  140.1302  153.9778  157.7252 S   0  0  0  0  0  0  0  0  0  0  0  0
  139.1656  153.9087  159.2329 C   0  0  0  0  0  0  0  0  0  0  0  0
 38  3  1  0
 37 35  1  0
 15 14  2  0
 35 34  1  0
  3  2  1  0
 18 16  2  0
 19 23  1  0
 26 25  1  0
 19 21  2  0
  4  1  2  0
  8  3  2  0
  9  4  1  0
  8  4  1  0
 27 26  1  0
  7  1  1  0
  6 10  1  0
  9  5  1  0
 29 24  1  0
 20 14  1  0
  6  1  1  0
 19 20  1  0
 35 30  1  0
 17 13  2  0
  6  5  2  0
 27 28  1  0
  7  2  2  0
 31 30  1  0
 17 16  1  0
 18 15  1  0
 24 23  1  0
 13 14  1  0
  5 31  1  0
 25 24  1  0
 38 39  1  0
 35 36  1  0
  7 17  1  0
 32 31  2  0
 28 29  1  0
 30 33  1  0
 20 22  1  0
 10 11  1  0
 10 12  1  0
M  END
> <minimizedAffinity>
-55.12448

$$$$
55Z_Org43553


 39 42  0  0  0  0  0  0  0  0999 V2000
  137.4692  154.9394  157.5027 C   0  0  0  0  0  0  0  0  0  0  0  0
  138.1103  154.1334  155.4174 N   0  0  0  0  0  0  0  0  0  0  0  0
  138.9244  153.3088  155.9612 C   0  0  0  0  0  0  0  0  0  0  0  0
  138.3789  153.9760  157.9911 C   0  0  0  0  0  0  0  0  0  0  0  0
  137.2374  155.3286  159.7390 C   0  0  0  0  0  0  0  0  0  0  0  0
  136.8942  155.6313  158.5531 C   0  0  0  0  0  0  0  0  0  0  0  0
  137.3685  154.9842  156.1320 C   0  0  0  0  0  0  0  0  0  0  0  0
  139.0484  153.2189  157.2219 N   0  0  0  0  0  0  0  0  0  0  0  0
  138.3538  154.0903  159.7759 S   0  0  0  0  0  0  0  0  0  0  0  0
  135.9370  156.6492  158.4116 N   0  0  0  0  0  0  0  0  0  0  0  0
  135.6370  156.9215  157.5143 H   0  0  0  0  0  0  0  0  0  0  0  0
  135.5660  157.0904  159.2097 H   0  0  0  0  0  0  0  0  0  0  0  0
  135.7992  155.1514  154.3319 C   0  0  0  0  0  0  0  0  0  0  0  0
  134.9344  155.6403  153.4834 C   0  0  0  0  0  0  0  0  0  0  0  0
  134.6718  156.9653  153.6266 C   0  0  0  0  0  0  0  0  0  0  0  0
  136.1956  157.2242  155.4182 C   0  0  0  0  0  0  0  0  0  0  0  0
  136.4548  155.8878  155.2766 C   0  0  0  0  0  0  0  0  0  0  0  0
  135.3080  157.7537  154.5523 C   0  0  0  0  0  0  0  0  0  0  0  0
  132.9638  154.7333  152.0652 C   0  0  0  0  0  0  0  0  0  0  0  0
  134.3444  154.7125  152.5339 N   0  0  0  0  0  0  0  0  0  0  0  0
  132.2494  155.5461  152.4743 O   0  0  0  0  0  0  0  0  0  0  0  0
  134.9290  154.0065  152.1748 H   0  0  0  0  0  0  0  0  0  0  0  0
  132.4091  153.7172  151.0516 C   0  0  0  0  0  0  0  0  0  0  0  0
  133.0116  152.3941  150.9876 N   0  0  0  0  0  0  0  0  0  0  0  0
  133.3581  151.7113  152.1091 C   0  0  0  0  0  0  0  0  0  0  0  0
  134.5761  151.2047  152.1327 C   0  0  0  0  0  0  0  0  0  0  0  0
  135.4142  151.3105  150.9544 O   0  0  0  0  0  0  0  0  0  0  0  0
  134.6213  151.4870  149.7511 C   0  0  0  0  0  0  0  0  0  0  0  0
  133.3507  151.7419  149.8560 C   0  0  0  0  0  0  0  0  0  0  0  0
  135.3168  155.9332  161.1556 N   0  0  0  0  0  0  0  0  0  0  0  0
  136.7062  155.8598  160.9675 C   0  0  0  0  0  0  0  0  0  0  0  0
  137.4587  156.1878  161.7142 O   0  0  0  0  0  0  0  0  0  0  0  0
  134.7055  155.6225  160.4491 H   0  0  0  0  0  0  0  0  0  0  0  0
  135.9027  157.2226  163.0709 C   0  0  0  0  0  0  0  0  0  0  0  0
  134.7969  156.4565  162.3666 C   0  0  0  0  0  0  0  0  0  0  0  0
  134.3889  155.2679  163.2076 C   0  0  0  0  0  0  0  0  0  0  0  0
  133.5927  157.3351  162.1340 C   0  0  0  0  0  0  0  0  0  0  0  0
  139.8537  152.2107  154.9755 S   0  0  0  0  0  0  0  0  0  0  0  0
  139.0415  150.8234  154.1854 C   0  0  0  0  0  0  0  0  0  0  0  0
 38  3  1  0
 37 35  1  0
 15 14  2  0
 35 34  1  0
  3  2  1  0
 18 16  2  0
 19 23  1  0
 26 25  1  0
 19 21  2  0
  4  1  2  0
  8  3  2  0
  9  4  1  0
  8  4  1  0
 27 26  1  0
  7  1  1  0
  6 10  1  0
  9  5  1  0
 29 24  1  0
 20 14  1  0
  6  1  1  0
 19 20  1  0
 35 30  1  0
 17 13  2  0
  6  5  2  0
 27 28  1  0
  7  2  2  0
 31 30  1  0
 17 16  1  0
 18 15  1  0
 24 23  1  0
 13 14  1  0
  5 31  1  0
 25 24  1  0
 38 39  1  0
 35 36  1  0
  7 17  1  0
 32 31  2  0
 28 29  1  0
 30 33  1  0
 20 22  1  0
 10 11  1  0
 10 12  1  0
M  END
> <minimizedAffinity>
-54.75259

$$$$
55Z_Org43553


 39 42  0  0  0  0  0  0  0  0999 V2000
  138.4981  153.6541  156.6320 C   0  0  0  0  0  0  0  0  0  0  0  0
  137.8885  154.7460  158.5929 N   0  0  0  0  0  0  0  0  0  0  0  0
  138.7858  154.1134  159.2510 C   0  0  0  0  0  0  0  0  0  0  0  0
  139.4664  153.0343  157.4521 C   0  0  0  0  0  0  0  0  0  0  0  0
  139.4904  152.3196  155.0696 C   0  0  0  0  0  0  0  0  0  0  0  0
  138.5992  153.1865  155.3344 C   0  0  0  0  0  0  0  0  0  0  0  0
  137.6850  154.5487  157.2873 C   0  0  0  0  0  0  0  0  0  0  0  0
  139.5699  153.2847  158.6930 N   0  0  0  0  0  0  0  0  0  0  0  0
  140.4011  151.9221  156.4089 S   0  0  0  0  0  0  0  0  0  0  0  0
  137.7908  153.6095  154.2667 N   0  0  0  0  0  0  0  0  0  0  0  0
  137.0856  154.2794  154.4185 H   0  0  0  0  0  0  0  0  0  0  0  0
  137.9294  153.2360  153.3664 H   0  0  0  0  0  0  0  0  0  0  0  0
  136.2681  155.0227  155.4168 C   0  0  0  0  0  0  0  0  0  0  0  0
  135.3343  155.5530  154.6728 C   0  0  0  0  0  0  0  0  0  0  0  0
  134.5988  156.5233  155.2748 C   0  0  0  0  0  0  0  0  0  0  0  0
  135.8186  156.3977  157.2985 C   0  0  0  0  0  0  0  0  0  0  0  0
  136.5550  155.4160  156.6926 C   0  0  0  0  0  0  0  0  0  0  0  0
  134.8499  156.9631  156.5503 C   0  0  0  0  0  0  0  0  0  0  0  0
  134.0405  155.2496  152.4476 C   0  0  0  0  0  0  0  0  0  0  0  0
  135.1785  155.0207  153.3301 N   0  0  0  0  0  0  0  0  0  0  0  0
  133.1652  155.9043  152.8268 O   0  0  0  0  0  0  0  0  0  0  0  0
  135.9064  154.4547  152.9851 H   0  0  0  0  0  0  0  0  0  0  0  0
  133.9467  154.6544  151.0319 C   0  0  0  0  0  0  0  0  0  0  0  0
  134.2282  153.2383  150.8492 N   0  0  0  0  0  0  0  0  0  0  0  0
  133.4991  152.4681  150.0010 C   0  0  0  0  0  0  0  0  0  0  0  0
  133.0514  151.3260  150.4865 C   0  0  0  0  0  0  0  0  0  0  0  0
  133.4390  150.9197  151.8231 O   0  0  0  0  0  0  0  0  0  0  0  0
  134.6747  151.5597  152.2369 C   0  0  0  0  0  0  0  0  0  0  0  0
  135.1598  152.5318  151.5227 C   0  0  0  0  0  0  0  0  0  0  0  0
  139.2756  150.5332  153.3892 N   0  0  0  0  0  0  0  0  0  0  0  0
  139.8196  151.7667  153.7814 C   0  0  0  0  0  0  0  0  0  0  0  0
  140.5070  152.3759  153.1586 O   0  0  0  0  0  0  0  0  0  0  0  0
  138.6701  150.0459  153.9934 H   0  0  0  0  0  0  0  0  0  0  0  0
  141.1113  149.8577  152.0297 C   0  0  0  0  0  0  0  0  0  0  0  0
  139.6015  149.9918  152.1198 C   0  0  0  0  0  0  0  0  0  0  0  0
  139.1191  150.9895  151.0910 C   0  0  0  0  0  0  0  0  0  0  0  0
  138.9245  148.6653  151.8784 C   0  0  0  0  0  0  0  0  0  0  0  0
  139.0149  154.4268  160.9510 S   0  0  0  0  0  0  0  0  0  0  0  0
  140.2865  153.5444  161.8525 C   0  0  0  0  0  0  0  0  0  0  0  0
 38  3  1  0
 37 35  1  0
 15 14  2  0
 35 34  1  0
  3  2  1  0
 18 16  2  0
 19 23  1  0
 26 25  1  0
 19 21  2  0
  4  1  2  0
  8  3  2  0
  9  4  1  0
  8  4  1  0
 27 26  1  0
  7  1  1  0
  6 10  1  0
  9  5  1  0
 29 24  1  0
 20 14  1  0
  6  1  1  0
 19 20  1  0
 35 30  1  0
 17 13  2  0
  6  5  2  0
 27 28  1  0
  7  2  2  0
 31 30  1  0
 17 16  1  0
 18 15  1  0
 24 23  1  0
 13 14  1  0
  5 31  1  0
 25 24  1  0
 38 39  1  0
 35 36  1  0
  7 17  1  0
 32 31  2  0
 28 29  1  0
 30 33  1  0
 20 22  1  0
 10 11  1  0
 10 12  1  0
M  END
> <minimizedAffinity>
-54.01019

$$$$
