55Z_Org43553


 39 42  0  0  0  0  0  0  0  0999 V2000
  138.8010  151.8844  154.8493 C   0  0  0  0  0  0  0  0  0  0  0  0
  138.4110  150.5063  153.0168 N   0  0  0  0  0  0  0  0  0  0  0  0
  139.5559  149.9523  153.1610 C   0  0  0  0  0  0  0  0  0  0  0  0
  140.0272  151.1880  154.9258 C   0  0  0  0  0  0  0  0  0  0  0  0
  139.7026  152.9432  156.6582 C   0  0  0  0  0  0  0  0  0  0  0  0
  138.7249  152.8322  155.8535 C   0  0  0  0  0  0  0  0  0  0  0  0
  137.9840  151.4872  153.8170 C   0  0  0  0  0  0  0  0  0  0  0  0
  140.3445  150.2736  154.1033 N   0  0  0  0  0  0  0  0  0  0  0  0
  140.9232  151.8580  156.3213 S   0  0  0  0  0  0  0  0  0  0  0  0
  137.6305  153.6864  156.0656 N   0  0  0  0  0  0  0  0  0  0  0  0
  136.8477  153.6407  155.4703 H   0  0  0  0  0  0  0  0  0  0  0  0
  137.6462  154.3310  156.8095 H   0  0  0  0  0  0  0  0  0  0  0  0
  136.5230  153.3699  153.5886 C   0  0  0  0  0  0  0  0  0  0  0  0
  135.4684  154.0953  153.3273 C   0  0  0  0  0  0  0  0  0  0  0  0
  134.3950  153.4056  152.8613 C   0  0  0  0  0  0  0  0  0  0  0  0
  135.4920  151.3138  153.0030 C   0  0  0  0  0  0  0  0  0  0  0  0
  136.5747  152.0108  153.4668 C   0  0  0  0  0  0  0  0  0  0  0  0
  134.3895  152.0397  152.7284 C   0  0  0  0  0  0  0  0  0  0  0  0
  134.4790  156.4621  153.6969 C   0  0  0  0  0  0  0  0  0  0  0  0
  135.5869  155.5291  153.5293 N   0  0  0  0  0  0  0  0  0  0  0  0
  133.3972  156.0533  153.6636 O   0  0  0  0  0  0  0  0  0  0  0  0
  136.4967  155.9043  153.5553 H   0  0  0  0  0  0  0  0  0  0  0  0
  134.6821  157.9721  153.9117 C   0  0  0  0  0  0  0  0  0  0  0  0
  135.6003  158.4128  154.9512 N   0  0  0  0  0  0  0  0  0  0  0  0
  135.7226  157.7447  156.1272 C   0  0  0  0  0  0  0  0  0  0  0  0
  135.6577  158.4748  157.2241 C   0  0  0  0  0  0  0  0  0  0  0  0
  135.5686  159.9177  157.1149 O   0  0  0  0  0  0  0  0  0  0  0  0
  136.0902  160.3888  155.8445 C   0  0  0  0  0  0  0  0  0  0  0  0
  136.3567  159.5292  154.9062 C   0  0  0  0  0  0  0  0  0  0  0  0
  139.7081  153.2462  159.1015 N   0  0  0  0  0  0  0  0  0  0  0  0
  139.7938  153.7982  157.8134 C   0  0  0  0  0  0  0  0  0  0  0  0
  139.9326  154.8786  157.6016 O   0  0  0  0  0  0  0  0  0  0  0  0
  139.5854  152.2761  159.2160 H   0  0  0  0  0  0  0  0  0  0  0  0
  138.6487  155.0811  160.1900 C   0  0  0  0  0  0  0  0  0  0  0  0
  139.7987  154.0909  160.2368 C   0  0  0  0  0  0  0  0  0  0  0  0
  141.1111  154.8324  160.1164 C   0  0  0  0  0  0  0  0  0  0  0  0
  139.7883  153.3093  161.5272 C   0  0  0  0  0  0  0  0  0  0  0  0
  140.0506  148.6644  152.0945 S   0  0  0  0  0  0  0  0  0  0  0  0
  141.7360  148.0610  152.1540 C   0  0  0  0  0  0  0  0  0  0  0  0
 38  3  1  0
 37 35  1  0
 15 14  2  0
 35 34  1  0
  3  2  1  0
 18 16  2  0
 19 23  1  0
 26 25  1  0
 19 21  2  0
  4  1  2  0
  8  3  2  0
  9  4  1  0
  8  4  1  0
 27 26  1  0
  7  1  1  0
  6 10  1  0
  9  5  1  0
 29 24  1  0
 20 14  1  0
  6  1  1  0
 19 20  1  0
 35 30  1  0
 17 13  2  0
  6  5  2  0
 27 28  1  0
  7  2  2  0
 31 30  1  0
 17 16  1  0
 18 15  1  0
 24 23  1  0
 13 14  1  0
  5 31  1  0
 25 24  1  0
 38 39  1  0
 35 36  1  0
  7 17  1  0
 32 31  2  0
 28 29  1  0
 30 33  1  0
 20 22  1  0
 10 11  1  0
 10 12  1  0
M  END
> <minimizedAffinity>
-9.52792

$$$$
55Z_Org43553


 39 42  0  0  0  0  0  0  0  0999 V2000
  138.5113  151.9761  152.9886 C   0  0  0  0  0  0  0  0  0  0  0  0
  140.7651  151.5112  153.3254 N   0  0  0  0  0  0  0  0  0  0  0  0
  140.7943  150.7791  152.2758 C   0  0  0  0  0  0  0  0  0  0  0  0
  138.6673  151.1673  151.8415 C   0  0  0  0  0  0  0  0  0  0  0  0
  136.3780  152.0776  152.1854 C   0  0  0  0  0  0  0  0  0  0  0  0
  137.2074  152.4270  153.0832 C   0  0  0  0  0  0  0  0  0  0  0  0
  139.6523  152.1217  153.7422 C   0  0  0  0  0  0  0  0  0  0  0  0
  139.7724  150.6196  151.5386 N   0  0  0  0  0  0  0  0  0  0  0  0
  137.0793  151.1126  151.0202 S   0  0  0  0  0  0  0  0  0  0  0  0
  136.7224  153.2637  154.1016 N   0  0  0  0  0  0  0  0  0  0  0  0
  137.3241  153.5631  154.8210 H   0  0  0  0  0  0  0  0  0  0  0  0
  135.7807  153.5508  154.0961 H   0  0  0  0  0  0  0  0  0  0  0  0
  138.7364  153.7213  155.2698 C   0  0  0  0  0  0  0  0  0  0  0  0
  138.5946  154.5064  156.3043 C   0  0  0  0  0  0  0  0  0  0  0  0
  139.6235  154.4840  157.1908 C   0  0  0  0  0  0  0  0  0  0  0  0
  140.8806  152.9358  155.9172 C   0  0  0  0  0  0  0  0  0  0  0  0
  139.8405  152.9550  155.0279 C   0  0  0  0  0  0  0  0  0  0  0  0
  140.7596  153.7400  156.9927 C   0  0  0  0  0  0  0  0  0  0  0  0
  136.7569  156.0465  155.3201 C   0  0  0  0  0  0  0  0  0  0  0  0
  137.3580  155.2637  156.3935 N   0  0  0  0  0  0  0  0  0  0  0  0
  137.2945  156.0925  154.2968 O   0  0  0  0  0  0  0  0  0  0  0  0
  136.8834  155.2468  157.2559 H   0  0  0  0  0  0  0  0  0  0  0  0
  135.4384  156.8217  155.4875 C   0  0  0  0  0  0  0  0  0  0  0  0
  135.4975  158.2463  155.7786 N   0  0  0  0  0  0  0  0  0  0  0  0
  135.6191  159.1729  154.7934 C   0  0  0  0  0  0  0  0  0  0  0  0
  136.5583  160.0844  154.9603 C   0  0  0  0  0  0  0  0  0  0  0  0
  137.3146  160.1093  156.1969 O   0  0  0  0  0  0  0  0  0  0  0  0
  136.5860  159.4732  157.2796 C   0  0  0  0  0  0  0  0  0  0  0  0
  135.5103  158.7937  157.0119 C   0  0  0  0  0  0  0  0  0  0  0  0
  134.7139  153.8199  151.6793 N   0  0  0  0  0  0  0  0  0  0  0  0
  135.0074  152.4973  152.0477 C   0  0  0  0  0  0  0  0  0  0  0  0
  134.2437  151.7175  152.2481 O   0  0  0  0  0  0  0  0  0  0  0  0
  135.4432  154.4606  151.5154 H   0  0  0  0  0  0  0  0  0  0  0  0
  133.3450  155.6932  151.1395 C   0  0  0  0  0  0  0  0  0  0  0  0
  133.3632  154.2298  151.5441 C   0  0  0  0  0  0  0  0  0  0  0  0
  132.7286  154.0731  152.9076 C   0  0  0  0  0  0  0  0  0  0  0  0
  132.6107  153.3830  150.5476 C   0  0  0  0  0  0  0  0  0  0  0  0
  142.2821  150.0214  151.7727 S   0  0  0  0  0  0  0  0  0  0  0  0
  142.5540  148.2847  152.1167 C   0  0  0  0  0  0  0  0  0  0  0  0
 38  3  1  0
 37 35  1  0
 15 14  2  0
 35 34  1  0
  3  2  1  0
 18 16  2  0
 19 23  1  0
 26 25  1  0
 19 21  2  0
  4  1  2  0
  8  3  2  0
  9  4  1  0
  8  4  1  0
 27 26  1  0
  7  1  1  0
  6 10  1  0
  9  5  1  0
 29 24  1  0
 20 14  1  0
  6  1  1  0
 19 20  1  0
 35 30  1  0
 17 13  2  0
  6  5  2  0
 27 28  1  0
  7  2  2  0
 31 30  1  0
 17 16  1  0
 18 15  1  0
 24 23  1  0
 13 14  1  0
  5 31  1  0
 25 24  1  0
 38 39  1  0
 35 36  1  0
  7 17  1  0
 32 31  2  0
 28 29  1  0
 30 33  1  0
 20 22  1  0
 10 11  1  0
 10 12  1  0
M  END
> <minimizedAffinity>
-9.42902

$$$$
55Z_Org43553


 39 42  0  0  0  0  0  0  0  0999 V2000
  138.4613  150.9454  153.2577 C   0  0  0  0  0  0  0  0  0  0  0  0
  137.8382  152.2834  155.0552 N   0  0  0  0  0  0  0  0  0  0  0  0
  138.9969  152.1532  155.5831 C   0  0  0  0  0  0  0  0  0  0  0  0
  139.7078  150.8920  153.9196 C   0  0  0  0  0  0  0  0  0  0  0  0
  139.5886  149.6085  151.7921 C   0  0  0  0  0  0  0  0  0  0  0  0
  138.5052  150.2016  152.0927 C   0  0  0  0  0  0  0  0  0  0  0  0
  137.5047  151.6921  153.9045 C   0  0  0  0  0  0  0  0  0  0  0  0
  139.9198  151.4842  155.0229 N   0  0  0  0  0  0  0  0  0  0  0  0
  140.7892  149.8795  152.9173 S   0  0  0  0  0  0  0  0  0  0  0  0
  137.4347  150.0574  151.1951 N   0  0  0  0  0  0  0  0  0  0  0  0
  136.5736  150.4967  151.3814 H   0  0  0  0  0  0  0  0  0  0  0  0
  137.5455  149.5172  150.3796 H   0  0  0  0  0  0  0  0  0  0  0  0
  135.6972  153.2569  153.7814 C   0  0  0  0  0  0  0  0  0  0  0  0
  134.5419  153.7954  153.4949 C   0  0  0  0  0  0  0  0  0  0  0  0
  133.7013  153.0081  152.7749 C   0  0  0  0  0  0  0  0  0  0  0  0
  135.2109  151.1866  152.7274 C   0  0  0  0  0  0  0  0  0  0  0  0
  136.0592  151.9832  153.4479 C   0  0  0  0  0  0  0  0  0  0  0  0
  134.0104  151.7186  152.4213 C   0  0  0  0  0  0  0  0  0  0  0  0
  135.1565  156.3100  153.6224 C   0  0  0  0  0  0  0  0  0  0  0  0
  134.3202  155.1594  153.9431 N   0  0  0  0  0  0  0  0  0  0  0  0
  136.0910  156.1512  152.9592 O   0  0  0  0  0  0  0  0  0  0  0  0
  133.5350  155.3214  154.5145 H   0  0  0  0  0  0  0  0  0  0  0  0
  134.8558  157.7305  154.1315 C   0  0  0  0  0  0  0  0  0  0  0  0
  135.7179  158.3033  155.1544 N   0  0  0  0  0  0  0  0  0  0  0  0
  135.8774  157.7135  156.3672 C   0  0  0  0  0  0  0  0  0  0  0  0
  135.7351  158.4948  157.4208 C   0  0  0  0  0  0  0  0  0  0  0  0
  135.5276  159.9169  157.2299 O   0  0  0  0  0  0  0  0  0  0  0  0
  136.0275  160.3597  155.9408 C   0  0  0  0  0  0  0  0  0  0  0  0
  136.3792  159.4753  155.0550 C   0  0  0  0  0  0  0  0  0  0  0  0
  139.1146  147.7189  150.2868 N   0  0  0  0  0  0  0  0  0  0  0  0
  139.8742  148.8583  150.5966 C   0  0  0  0  0  0  0  0  0  0  0  0
  140.7070  149.2456  149.9738 O   0  0  0  0  0  0  0  0  0  0  0  0
  138.3876  147.4320  150.8856 H   0  0  0  0  0  0  0  0  0  0  0  0
  138.2610  146.0052  148.8693 C   0  0  0  0  0  0  0  0  0  0  0  0
  139.3981  146.9827  149.1086 C   0  0  0  0  0  0  0  0  0  0  0  0
  140.6752  146.2186  149.3768 C   0  0  0  0  0  0  0  0  0  0  0  0
  139.6006  147.8811  147.9135 C   0  0  0  0  0  0  0  0  0  0  0  0
  139.3782  152.9641  157.0791 S   0  0  0  0  0  0  0  0  0  0  0  0
  140.9728  153.7553  157.2782 C   0  0  0  0  0  0  0  0  0  0  0  0
 38  3  1  0
 37 35  1  0
 15 14  2  0
 35 34  1  0
  3  2  1  0
 18 16  2  0
 19 23  1  0
 26 25  1  0
 19 21  2  0
  4  1  2  0
  8  3  2  0
  9  4  1  0
  8  4  1  0
 27 26  1  0
  7  1  1  0
  6 10  1  0
  9  5  1  0
 29 24  1  0
 20 14  1  0
  6  1  1  0
 19 20  1  0
 35 30  1  0
 17 13  2  0
  6  5  2  0
 27 28  1  0
  7  2  2  0
 31 30  1  0
 17 16  1  0
 18 15  1  0
 24 23  1  0
 13 14  1  0
  5 31  1  0
 25 24  1  0
 38 39  1  0
 35 36  1  0
  7 17  1  0
 32 31  2  0
 28 29  1  0
 30 33  1  0
 20 22  1  0
 10 11  1  0
 10 12  1  0
M  END
> <minimizedAffinity>
-9.42859

$$$$
55Z_Org43553


 39 42  0  0  0  0  0  0  0  0999 V2000
  135.9584  154.1132  155.1022 C   0  0  0  0  0  0  0  0  0  0  0  0
  136.6713  155.4066  156.8989 N   0  0  0  0  0  0  0  0  0  0  0  0
  135.5105  155.9347  157.0086 C   0  0  0  0  0  0  0  0  0  0  0  0
  134.7155  154.7433  155.3318 C   0  0  0  0  0  0  0  0  0  0  0  0
  134.7446  153.1284  153.4399 C   0  0  0  0  0  0  0  0  0  0  0  0
  135.8631  153.2405  154.0336 C   0  0  0  0  0  0  0  0  0  0  0  0
  136.9616  154.5041  155.9576 C   0  0  0  0  0  0  0  0  0  0  0  0
  134.5462  155.6021  156.2520 N   0  0  0  0  0  0  0  0  0  0  0  0
  133.5697  154.0969  154.1200 S   0  0  0  0  0  0  0  0  0  0  0  0
  136.9171  152.4466  153.5529 N   0  0  0  0  0  0  0  0  0  0  0  0
  137.8038  152.4958  153.9778 H   0  0  0  0  0  0  0  0  0  0  0  0
  136.7692  151.8409  152.7910 H   0  0  0  0  0  0  0  0  0  0  0  0
  138.5136  152.7541  155.4479 C   0  0  0  0  0  0  0  0  0  0  0  0
  139.6285  152.0852  155.3198 C   0  0  0  0  0  0  0  0  0  0  0  0
  140.7433  152.7358  155.7427 C   0  0  0  0  0  0  0  0  0  0  0  0
  139.5404  154.6511  156.4382 C   0  0  0  0  0  0  0  0  0  0  0  0
  138.4187  153.9967  156.0062 C   0  0  0  0  0  0  0  0  0  0  0  0
  140.7041  153.9807  156.3192 C   0  0  0  0  0  0  0  0  0  0  0  0
  140.1527  150.3623  153.4559 C   0  0  0  0  0  0  0  0  0  0  0  0
  139.5414  150.7665  154.7165 N   0  0  0  0  0  0  0  0  0  0  0  0
  140.7617  151.1427  152.8573 O   0  0  0  0  0  0  0  0  0  0  0  0
  139.0233  150.0848  155.2023 H   0  0  0  0  0  0  0  0  0  0  0  0
  140.0205  148.9417  152.8797 C   0  0  0  0  0  0  0  0  0  0  0  0
  141.0751  148.4385  152.0124 N   0  0  0  0  0  0  0  0  0  0  0  0
  140.8489  147.4458  151.1138 C   0  0  0  0  0  0  0  0  0  0  0  0
  141.7067  146.4434  151.1213 C   0  0  0  0  0  0  0  0  0  0  0  0
  142.8670  146.5056  151.9883 O   0  0  0  0  0  0  0  0  0  0  0  0
  143.2021  147.8758  152.3320 C   0  0  0  0  0  0  0  0  0  0  0  0
  142.3664  148.8287  152.0421 C   0  0  0  0  0  0  0  0  0  0  0  0
  133.7501  152.7091  151.2272 N   0  0  0  0  0  0  0  0  0  0  0  0
  134.4074  152.2258  152.3698 C   0  0  0  0  0  0  0  0  0  0  0  0
  134.7016  151.1669  152.5237 O   0  0  0  0  0  0  0  0  0  0  0  0
  133.5193  153.6636  151.1567 H   0  0  0  0  0  0  0  0  0  0  0  0
  134.6974  151.4462  149.4434 C   0  0  0  0  0  0  0  0  0  0  0  0
  133.4198  151.8177  150.1750 C   0  0  0  0  0  0  0  0  0  0  0  0
  132.5035  152.5763  149.2415 C   0  0  0  0  0  0  0  0  0  0  0  0
  132.7060  150.5872  150.6775 C   0  0  0  0  0  0  0  0  0  0  0  0
  135.1877  157.0954  158.2693 S   0  0  0  0  0  0  0  0  0  0  0  0
  135.3860  158.8444  157.9373 C   0  0  0  0  0  0  0  0  0  0  0  0
 38  3  1  0
 37 35  1  0
 15 14  2  0
 35 34  1  0
  3  2  1  0
 18 16  2  0
 19 23  1  0
 26 25  1  0
 19 21  2  0
  4  1  2  0
  8  3  2  0
  9  4  1  0
  8  4  1  0
 27 26  1  0
  7  1  1  0
  6 10  1  0
  9  5  1  0
 29 24  1  0
 20 14  1  0
  6  1  1  0
 19 20  1  0
 35 30  1  0
 17 13  2  0
  6  5  2  0
 27 28  1  0
  7  2  2  0
 31 30  1  0
 17 16  1  0
 18 15  1  0
 24 23  1  0
 13 14  1  0
  5 31  1  0
 25 24  1  0
 38 39  1  0
 35 36  1  0
  7 17  1  0
 32 31  2  0
 28 29  1  0
 30 33  1  0
 20 22  1  0
 10 11  1  0
 10 12  1  0
M  END
> <minimizedAffinity>
-9.28173

$$$$
55Z_Org43553


 39 42  0  0  0  0  0  0  0  0999 V2000
  138.5333  151.6689  152.4649 C   0  0  0  0  0  0  0  0  0  0  0  0
  140.7644  151.1754  152.8985 N   0  0  0  0  0  0  0  0  0  0  0  0
  140.7646  150.2726  151.9911 C   0  0  0  0  0  0  0  0  0  0  0  0
  138.6572  150.6684  151.4759 C   0  0  0  0  0  0  0  0  0  0  0  0
  136.4082  151.7191  151.6357 C   0  0  0  0  0  0  0  0  0  0  0  0
  137.2497  152.1834  152.4678 C   0  0  0  0  0  0  0  0  0  0  0  0
  139.6778  151.8947  153.1930 C   0  0  0  0  0  0  0  0  0  0  0  0
  139.7386  150.0310  151.2826 N   0  0  0  0  0  0  0  0  0  0  0  0
  137.0703  150.5390  150.6611 S   0  0  0  0  0  0  0  0  0  0  0  0
  136.7986  153.2028  153.3219 N   0  0  0  0  0  0  0  0  0  0  0  0
  137.4109  153.5965  153.9847 H   0  0  0  0  0  0  0  0  0  0  0  0
  135.8701  153.5237  153.2579 H   0  0  0  0  0  0  0  0  0  0  0  0
  138.7088  153.4704  154.7126 C   0  0  0  0  0  0  0  0  0  0  0  0
  138.5796  154.3511  155.6690 C   0  0  0  0  0  0  0  0  0  0  0  0
  139.7308  154.6782  156.3112 C   0  0  0  0  0  0  0  0  0  0  0  0
  141.0602  153.2619  154.9600 C   0  0  0  0  0  0  0  0  0  0  0  0
  139.8985  152.9288  154.3176 C   0  0  0  0  0  0  0  0  0  0  0  0
  140.9539  154.1714  155.9496 C   0  0  0  0  0  0  0  0  0  0  0  0
  136.4127  155.6271  155.0415 C   0  0  0  0  0  0  0  0  0  0  0  0
  137.2373  154.8334  155.9450 N   0  0  0  0  0  0  0  0  0  0  0  0
  136.8426  155.9198  154.0082 O   0  0  0  0  0  0  0  0  0  0  0  0
  136.8498  154.6038  156.8204 H   0  0  0  0  0  0  0  0  0  0  0  0
  134.9936  156.0999  155.4021 C   0  0  0  0  0  0  0  0  0  0  0  0
  134.5601  156.0154  156.7888 N   0  0  0  0  0  0  0  0  0  0  0  0
  134.1218  154.8501  157.3311 C   0  0  0  0  0  0  0  0  0  0  0  0
  132.9794  154.9043  157.9887 C   0  0  0  0  0  0  0  0  0  0  0  0
  132.3284  156.1854  158.1809 O   0  0  0  0  0  0  0  0  0  0  0  0
  133.2742  157.2828  158.0862 C   0  0  0  0  0  0  0  0  0  0  0  0
  134.4764  157.0527  157.6478 C   0  0  0  0  0  0  0  0  0  0  0  0
  134.7231  153.5140  151.6179 N   0  0  0  0  0  0  0  0  0  0  0  0
  135.0572  152.1656  151.4144 C   0  0  0  0  0  0  0  0  0  0  0  0
  134.3413  151.3848  151.0835 O   0  0  0  0  0  0  0  0  0  0  0  0
  135.4108  154.1543  151.9118 H   0  0  0  0  0  0  0  0  0  0  0  0
  133.4167  155.4431  151.1219 C   0  0  0  0  0  0  0  0  0  0  0  0
  133.3919  153.9503  151.3987 C   0  0  0  0  0  0  0  0  0  0  0  0
  132.6366  153.6853  152.6817 C   0  0  0  0  0  0  0  0  0  0  0  0
  132.7283  153.2011  150.2698 C   0  0  0  0  0  0  0  0  0  0  0  0
  142.2199  149.3780  151.6406 S   0  0  0  0  0  0  0  0  0  0  0  0
  142.3389  147.6553  152.1164 C   0  0  0  0  0  0  0  0  0  0  0  0
 38  3  1  0
 37 35  1  0
 15 14  2  0
 35 34  1  0
  3  2  1  0
 18 16  2  0
 19 23  1  0
 26 25  1  0
 19 21  2  0
  4  1  2  0
  8  3  2  0
  9  4  1  0
  8  4  1  0
 27 26  1  0
  7  1  1  0
  6 10  1  0
  9  5  1  0
 29 24  1  0
 20 14  1  0
  6  1  1  0
 19 20  1  0
 35 30  1  0
 17 13  2  0
  6  5  2  0
 27 28  1  0
  7  2  2  0
 31 30  1  0
 17 16  1  0
 18 15  1  0
 24 23  1  0
 13 14  1  0
  5 31  1  0
 25 24  1  0
 38 39  1  0
 35 36  1  0
  7 17  1  0
 32 31  2  0
 28 29  1  0
 30 33  1  0
 20 22  1  0
 10 11  1  0
 10 12  1  0
M  END
> <minimizedAffinity>
-9.24361

$$$$
55Z_Org43553


 39 42  0  0  0  0  0  0  0  0999 V2000
  136.9596  154.9906  156.5775 C   0  0  0  0  0  0  0  0  0  0  0  0
  137.6469  154.7337  158.7845 N   0  0  0  0  0  0  0  0  0  0  0  0
  136.5778  155.2968  159.2069 C   0  0  0  0  0  0  0  0  0  0  0  0
  135.8117  155.5738  157.1576 C   0  0  0  0  0  0  0  0  0  0  0  0
  135.8132  155.4985  154.6712 C   0  0  0  0  0  0  0  0  0  0  0  0
  136.8570  155.0000  155.1984 C   0  0  0  0  0  0  0  0  0  0  0  0
  137.9028  154.5666  157.4839 C   0  0  0  0  0  0  0  0  0  0  0  0
  135.6701  155.6968  158.4137 N   0  0  0  0  0  0  0  0  0  0  0  0
  134.7312  156.0498  155.8140 S   0  0  0  0  0  0  0  0  0  0  0  0
  137.8241  154.4830  154.3210 N   0  0  0  0  0  0  0  0  0  0  0  0
  138.6508  154.0857  154.6784 H   0  0  0  0  0  0  0  0  0  0  0  0
  137.6751  154.5179  153.3484 H   0  0  0  0  0  0  0  0  0  0  0  0
  139.0593  152.7813  156.3858 C   0  0  0  0  0  0  0  0  0  0  0  0
  140.0196  152.0111  155.9481 C   0  0  0  0  0  0  0  0  0  0  0  0
  141.2724  152.3862  156.3153 C   0  0  0  0  0  0  0  0  0  0  0  0
  140.5081  154.2397  157.5721 C   0  0  0  0  0  0  0  0  0  0  0  0
  139.2468  153.8640  157.1964 C   0  0  0  0  0  0  0  0  0  0  0  0
  141.5170  153.4592  157.1353 C   0  0  0  0  0  0  0  0  0  0  0  0
  140.1231  150.6295  153.7578 C   0  0  0  0  0  0  0  0  0  0  0  0
  139.6356  150.8907  155.1069 N   0  0  0  0  0  0  0  0  0  0  0  0
  140.8791  151.3677  153.2866 O   0  0  0  0  0  0  0  0  0  0  0  0
  138.9881  150.2504  155.4813 H   0  0  0  0  0  0  0  0  0  0  0  0
  139.6731  149.4158  152.9260 C   0  0  0  0  0  0  0  0  0  0  0  0
  140.6495  148.7499  152.0769 N   0  0  0  0  0  0  0  0  0  0  0  0
  140.3173  147.6812  151.3077 C   0  0  0  0  0  0  0  0  0  0  0  0
  141.1105  146.6304  151.3922 C   0  0  0  0  0  0  0  0  0  0  0  0
  142.3147  146.7101  152.1957 O   0  0  0  0  0  0  0  0  0  0  0  0
  142.7510  148.0842  152.3665 C   0  0  0  0  0  0  0  0  0  0  0  0
  141.9624  149.0533  152.0064 C   0  0  0  0  0  0  0  0  0  0  0  0
  134.2434  155.0022  152.8407 N   0  0  0  0  0  0  0  0  0  0  0  0
  135.4689  155.5334  153.2734 C   0  0  0  0  0  0  0  0  0  0  0  0
  136.2232  155.9968  152.6042 O   0  0  0  0  0  0  0  0  0  0  0  0
  133.6196  154.6059  153.4912 H   0  0  0  0  0  0  0  0  0  0  0  0
  132.4624  154.5974  151.3116 C   0  0  0  0  0  0  0  0  0  0  0  0
  133.9073  155.0385  151.4636 C   0  0  0  0  0  0  0  0  0  0  0  0
  134.8156  154.0456  150.7738 C   0  0  0  0  0  0  0  0  0  0  0  0
  134.1221  156.4059  150.8634 C   0  0  0  0  0  0  0  0  0  0  0  0
  136.2924  155.4710  160.9183 S   0  0  0  0  0  0  0  0  0  0  0  0
  134.7046  156.0643  161.4973 C   0  0  0  0  0  0  0  0  0  0  0  0
 38  3  1  0
 37 35  1  0
 15 14  2  0
 35 34  1  0
  3  2  1  0
 18 16  2  0
 19 23  1  0
 26 25  1  0
 19 21  2  0
  4  1  2  0
  8  3  2  0
  9  4  1  0
  8  4  1  0
 27 26  1  0
  7  1  1  0
  6 10  1  0
  9  5  1  0
 29 24  1  0
 20 14  1  0
  6  1  1  0
 19 20  1  0
 35 30  1  0
 17 13  2  0
  6  5  2  0
 27 28  1  0
  7  2  2  0
 31 30  1  0
 17 16  1  0
 18 15  1  0
 24 23  1  0
 13 14  1  0
  5 31  1  0
 25 24  1  0
 38 39  1  0
 35 36  1  0
  7 17  1  0
 32 31  2  0
 28 29  1  0
 30 33  1  0
 20 22  1  0
 10 11  1  0
 10 12  1  0
M  END
> <minimizedAffinity>
-9.22826

$$$$
55Z_Org43553


 39 42  0  0  0  0  0  0  0  0999 V2000
  135.8168  154.5296  153.2779 C   0  0  0  0  0  0  0  0  0  0  0  0
  135.9141  152.7362  151.8003 N   0  0  0  0  0  0  0  0  0  0  0  0
  134.8420  153.1267  151.2201 C   0  0  0  0  0  0  0  0  0  0  0  0
  134.6584  154.8773  152.5487 C   0  0  0  0  0  0  0  0  0  0  0  0
  135.2271  156.4154  154.4191 C   0  0  0  0  0  0  0  0  0  0  0  0
  136.0396  155.4464  154.2890 C   0  0  0  0  0  0  0  0  0  0  0  0
  136.4412  153.3843  152.8429 C   0  0  0  0  0  0  0  0  0  0  0  0
  134.2320  154.1827  151.5746 N   0  0  0  0  0  0  0  0  0  0  0  0
  134.0132  156.3784  153.2762 S   0  0  0  0  0  0  0  0  0  0  0  0
  137.1161  155.3980  155.1896 N   0  0  0  0  0  0  0  0  0  0  0  0
  137.7739  154.6678  155.1316 H   0  0  0  0  0  0  0  0  0  0  0  0
  137.2129  156.0941  155.8790 H   0  0  0  0  0  0  0  0  0  0  0  0
  138.2794  151.8982  152.4640 C   0  0  0  0  0  0  0  0  0  0  0  0
  139.3938  151.2376  152.6329 C   0  0  0  0  0  0  0  0  0  0  0  0
  140.0369  151.4815  153.8042 C   0  0  0  0  0  0  0  0  0  0  0  0
  138.3791  152.9855  154.5715 C   0  0  0  0  0  0  0  0  0  0  0  0
  137.7351  152.7432  153.3884 C   0  0  0  0  0  0  0  0  0  0  0  0
  139.5307  152.3134  154.7712 C   0  0  0  0  0  0  0  0  0  0  0  0
  140.4549  149.0657  151.6979 C   0  0  0  0  0  0  0  0  0  0  0  0
  139.8165  150.3682  151.5486 N   0  0  0  0  0  0  0  0  0  0  0  0
  140.6621  148.6665  152.7638 O   0  0  0  0  0  0  0  0  0  0  0  0
  139.6578  150.6869  150.6307 H   0  0  0  0  0  0  0  0  0  0  0  0
  140.8724  148.1964  150.4990 C   0  0  0  0  0  0  0  0  0  0  0  0
  140.0392  147.0597  150.1362 N   0  0  0  0  0  0  0  0  0  0  0  0
  140.3370  146.2642  149.0767 C   0  0  0  0  0  0  0  0  0  0  0  0
  139.3526  146.0213  148.2327 C   0  0  0  0  0  0  0  0  0  0  0  0
  138.0220  146.5145  148.5297 O   0  0  0  0  0  0  0  0  0  0  0  0
  137.8456  146.7478  149.9517 C   0  0  0  0  0  0  0  0  0  0  0  0
  138.8814  146.7141  150.7369 C   0  0  0  0  0  0  0  0  0  0  0  0
  136.0999  158.6379  155.0192 N   0  0  0  0  0  0  0  0  0  0  0  0
  135.3181  157.5172  155.3418 C   0  0  0  0  0  0  0  0  0  0  0  0
  134.7410  157.4046  156.2830 O   0  0  0  0  0  0  0  0  0  0  0  0
  136.5860  158.6714  154.1637 H   0  0  0  0  0  0  0  0  0  0  0  0
  135.5200  159.3088  157.2300 C   0  0  0  0  0  0  0  0  0  0  0  0
  136.1870  159.7213  155.9298 C   0  0  0  0  0  0  0  0  0  0  0  0
  135.4205  160.8671  155.3083 C   0  0  0  0  0  0  0  0  0  0  0  0
  137.6140  160.1506  156.1655 C   0  0  0  0  0  0  0  0  0  0  0  0
  134.2118  152.2477  149.8522 S   0  0  0  0  0  0  0  0  0  0  0  0
  132.4563  151.9071  149.7488 C   0  0  0  0  0  0  0  0  0  0  0  0
 38  3  1  0
 37 35  1  0
 15 14  2  0
 35 34  1  0
  3  2  1  0
 18 16  2  0
 19 23  1  0
 26 25  1  0
 19 21  2  0
  4  1  2  0
  8  3  2  0
  9  4  1  0
  8  4  1  0
 27 26  1  0
  7  1  1  0
  6 10  1  0
  9  5  1  0
 29 24  1  0
 20 14  1  0
  6  1  1  0
 19 20  1  0
 35 30  1  0
 17 13  2  0
  6  5  2  0
 27 28  1  0
  7  2  2  0
 31 30  1  0
 17 16  1  0
 18 15  1  0
 24 23  1  0
 13 14  1  0
  5 31  1  0
 25 24  1  0
 38 39  1  0
 35 36  1  0
  7 17  1  0
 32 31  2  0
 28 29  1  0
 30 33  1  0
 20 22  1  0
 10 11  1  0
 10 12  1  0
M  END
> <minimizedAffinity>
-9.19833

$$$$
55Z_Org43553


 39 42  0  0  0  0  0  0  0  0999 V2000
  135.7213  155.5054  153.9683 C   0  0  0  0  0  0  0  0  0  0  0  0
  136.8948  156.9250  155.3885 N   0  0  0  0  0  0  0  0  0  0  0  0
  136.0557  157.8680  155.1763 C   0  0  0  0  0  0  0  0  0  0  0  0
  134.8490  156.6072  153.8281 C   0  0  0  0  0  0  0  0  0  0  0  0
  134.2186  154.5906  152.5152 C   0  0  0  0  0  0  0  0  0  0  0  0
  135.2798  154.4440  153.1996 C   0  0  0  0  0  0  0  0  0  0  0  0
  136.7913  155.7288  154.8026 C   0  0  0  0  0  0  0  0  0  0  0  0
  135.0446  157.7118  154.4238 N   0  0  0  0  0  0  0  0  0  0  0  0
  133.5455  156.1037  152.7116 S   0  0  0  0  0  0  0  0  0  0  0  0
  135.9138  153.1932  153.1238 N   0  0  0  0  0  0  0  0  0  0  0  0
  136.7390  153.0278  153.6347 H   0  0  0  0  0  0  0  0  0  0  0  0
  135.5332  152.4816  152.5599 H   0  0  0  0  0  0  0  0  0  0  0  0
  138.1388  153.8463  154.1930 C   0  0  0  0  0  0  0  0  0  0  0  0
  139.0490  152.9098  154.2309 C   0  0  0  0  0  0  0  0  0  0  0  0
  139.8199  152.8999  155.3492 C   0  0  0  0  0  0  0  0  0  0  0  0
  138.6799  154.7269  156.3297 C   0  0  0  0  0  0  0  0  0  0  0  0
  137.9077  154.7394  155.1997 C   0  0  0  0  0  0  0  0  0  0  0  0
  139.6252  153.7677  156.3944 C   0  0  0  0  0  0  0  0  0  0  0  0
  139.5674  150.6399  153.0927 C   0  0  0  0  0  0  0  0  0  0  0  0
  139.1447  152.0353  153.0749 N   0  0  0  0  0  0  0  0  0  0  0  0
  139.8660  150.1617  154.1029 O   0  0  0  0  0  0  0  0  0  0  0  0
  138.9025  152.4191  152.2013 H   0  0  0  0  0  0  0  0  0  0  0  0
  139.6404  149.7717  151.8244 C   0  0  0  0  0  0  0  0  0  0  0  0
  140.9370  149.2696  151.3949 N   0  0  0  0  0  0  0  0  0  0  0  0
  141.1346  147.9584  151.1021 C   0  0  0  0  0  0  0  0  0  0  0  0
  142.1806  147.3845  151.6652 C   0  0  0  0  0  0  0  0  0  0  0  0
  143.0929  148.1867  152.4564 O   0  0  0  0  0  0  0  0  0  0  0  0
  143.0251  149.5894  152.0882 C   0  0  0  0  0  0  0  0  0  0  0  0
  142.0692  149.9984  151.3075 C   0  0  0  0  0  0  0  0  0  0  0  0
  134.2903  152.6256  151.0338 N   0  0  0  0  0  0  0  0  0  0  0  0
  133.5445  153.5971  151.7202 C   0  0  0  0  0  0  0  0  0  0  0  0
  132.4371  153.6663  151.7025 O   0  0  0  0  0  0  0  0  0  0  0  0
  135.2729  152.6228  151.0950 H   0  0  0  0  0  0  0  0  0  0  0  0
  134.6688  150.8229  149.5233 C   0  0  0  0  0  0  0  0  0  0  0  0
  133.6233  151.6484  150.2521 C   0  0  0  0  0  0  0  0  0  0  0  0
  132.7827  152.4033  149.2471 C   0  0  0  0  0  0  0  0  0  0  0  0
  132.7256  150.7699  151.0879 C   0  0  0  0  0  0  0  0  0  0  0  0
  136.2345  159.4030  155.9842 S   0  0  0  0  0  0  0  0  0  0  0  0
  136.2862  160.9122  155.0208 C   0  0  0  0  0  0  0  0  0  0  0  0
 38  3  1  0
 37 35  1  0
 15 14  2  0
 35 34  1  0
  3  2  1  0
 18 16  2  0
 19 23  1  0
 26 25  1  0
 19 21  2  0
  4  1  2  0
  8  3  2  0
  9  4  1  0
  8  4  1  0
 27 26  1  0
  7  1  1  0
  6 10  1  0
  9  5  1  0
 29 24  1  0
 20 14  1  0
  6  1  1  0
 19 20  1  0
 35 30  1  0
 17 13  2  0
  6  5  2  0
 27 28  1  0
  7  2  2  0
 31 30  1  0
 17 16  1  0
 18 15  1  0
 24 23  1  0
 13 14  1  0
  5 31  1  0
 25 24  1  0
 38 39  1  0
 35 36  1  0
  7 17  1  0
 32 31  2  0
 28 29  1  0
 30 33  1  0
 20 22  1  0
 10 11  1  0
 10 12  1  0
M  END
> <minimizedAffinity>
-9.12759

$$$$
55Z_Org43553


 39 42  0  0  0  0  0  0  0  0999 V2000
  135.0080  153.1806  153.5042 C   0  0  0  0  0  0  0  0  0  0  0  0
  135.2341  151.4895  151.9236 N   0  0  0  0  0  0  0  0  0  0  0  0
  134.2173  151.9247  151.2793 C   0  0  0  0  0  0  0  0  0  0  0  0
  133.9183  153.5835  152.7014 C   0  0  0  0  0  0  0  0  0  0  0  0
  134.3210  154.9893  154.7136 C   0  0  0  0  0  0  0  0  0  0  0  0
  135.1414  154.0262  154.5903 C   0  0  0  0  0  0  0  0  0  0  0  0
  135.6678  152.0630  153.0496 C   0  0  0  0  0  0  0  0  0  0  0  0
  133.5788  152.9584  151.6492 N   0  0  0  0  0  0  0  0  0  0  0  0
  133.2122  155.0365  153.4689 S   0  0  0  0  0  0  0  0  0  0  0  0
  136.1346  153.9108  155.5765 N   0  0  0  0  0  0  0  0  0  0  0  0
  136.7948  153.1821  155.5273 H   0  0  0  0  0  0  0  0  0  0  0  0
  136.1708  154.5586  156.3169 H   0  0  0  0  0  0  0  0  0  0  0  0
  137.5167  150.5739  152.7416 C   0  0  0  0  0  0  0  0  0  0  0  0
  138.6082  149.8912  152.9640 C   0  0  0  0  0  0  0  0  0  0  0  0
  139.1588  150.0681  154.1930 C   0  0  0  0  0  0  0  0  0  0  0  0
  137.4590  151.5535  154.9027 C   0  0  0  0  0  0  0  0  0  0  0  0
  136.9086  151.3788  153.6619 C   0  0  0  0  0  0  0  0  0  0  0  0
  138.5851  150.8574  155.1582 C   0  0  0  0  0  0  0  0  0  0  0  0
  140.5109  148.8500  151.5453 C   0  0  0  0  0  0  0  0  0  0  0  0
  139.1076  149.0714  151.8736 N   0  0  0  0  0  0  0  0  0  0  0  0
  141.3213  149.3664  152.1895 O   0  0  0  0  0  0  0  0  0  0  0  0
  138.4386  148.6253  151.3055 H   0  0  0  0  0  0  0  0  0  0  0  0
  140.9660  147.9621  150.3740 C   0  0  0  0  0  0  0  0  0  0  0  0
  140.1344  146.8312  149.9902 N   0  0  0  0  0  0  0  0  0  0  0  0
  140.3103  146.1823  148.8103 C   0  0  0  0  0  0  0  0  0  0  0  0
  139.2268  145.9854  148.0838 C   0  0  0  0  0  0  0  0  0  0  0  0
  137.9333  146.3663  148.6166 O   0  0  0  0  0  0  0  0  0  0  0  0
  137.9504  146.4222  150.0672 C   0  0  0  0  0  0  0  0  0  0  0  0
  139.0871  146.3544  150.6948 C   0  0  0  0  0  0  0  0  0  0  0  0
  134.3658  155.6862  157.0744 N   0  0  0  0  0  0  0  0  0  0  0  0
  134.3309  156.0263  155.7127 C   0  0  0  0  0  0  0  0  0  0  0  0
  134.3110  157.0663  155.3260 O   0  0  0  0  0  0  0  0  0  0  0  0
  134.3832  154.7404  157.3471 H   0  0  0  0  0  0  0  0  0  0  0  0
  133.0227  157.3982  158.0436 C   0  0  0  0  0  0  0  0  0  0  0  0
  134.3760  156.7098  158.0557 C   0  0  0  0  0  0  0  0  0  0  0  0
  135.4480  157.6920  157.6402 C   0  0  0  0  0  0  0  0  0  0  0  0
  134.6996  156.1755  159.4290 C   0  0  0  0  0  0  0  0  0  0  0  0
  133.7093  151.1432  149.8055 S   0  0  0  0  0  0  0  0  0  0  0  0
  132.1423  151.5875  149.0601 C   0  0  0  0  0  0  0  0  0  0  0  0
 38  3  1  0
 37 35  1  0
 15 14  2  0
 35 34  1  0
  3  2  1  0
 18 16  2  0
 19 23  1  0
 26 25  1  0
 19 21  2  0
  4  1  2  0
  8  3  2  0
  9  4  1  0
  8  4  1  0
 27 26  1  0
  7  1  1  0
  6 10  1  0
  9  5  1  0
 29 24  1  0
 20 14  1  0
  6  1  1  0
 19 20  1  0
 35 30  1  0
 17 13  2  0
  6  5  2  0
 27 28  1  0
  7  2  2  0
 31 30  1  0
 17 16  1  0
 18 15  1  0
 24 23  1  0
 13 14  1  0
  5 31  1  0
 25 24  1  0
 38 39  1  0
 35 36  1  0
  7 17  1  0
 32 31  2  0
 28 29  1  0
 30 33  1  0
 20 22  1  0
 10 11  1  0
 10 12  1  0
M  END
> <minimizedAffinity>
-9.10273

$$$$
