55Z_Org43553


 39 42  0  0  0  0  0  0  0  0999 V2000
  135.6776  155.5791  153.9817 C   0  0  0  0  0  0  0  0  0  0  0  0
  136.8444  157.0115  155.3946 N   0  0  0  0  0  0  0  0  0  0  0  0
  136.0017  157.9499  155.1763 C   0  0  0  0  0  0  0  0  0  0  0  0
  134.8010  156.6766  153.8347 C   0  0  0  0  0  0  0  0  0  0  0  0
  134.1797  154.6500  152.5328 C   0  0  0  0  0  0  0  0  0  0  0  0
  135.2409  154.5115  153.2188 C   0  0  0  0  0  0  0  0  0  0  0  0
  136.7462  155.8115  154.8154 C   0  0  0  0  0  0  0  0  0  0  0  0
  134.9918  157.7853  154.4241 N   0  0  0  0  0  0  0  0  0  0  0  0
  133.5004  156.1615  152.7202 S   0  0  0  0  0  0  0  0  0  0  0  0
  135.8800  153.2628  153.1507 N   0  0  0  0  0  0  0  0  0  0  0  0
  136.7055  153.1037  153.6630 H   0  0  0  0  0  0  0  0  0  0  0  0
  135.5025  152.5466  152.5905 H   0  0  0  0  0  0  0  0  0  0  0  0
  138.0236  153.8625  154.2673 C   0  0  0  0  0  0  0  0  0  0  0  0
  138.9181  152.9118  154.3209 C   0  0  0  0  0  0  0  0  0  0  0  0
  139.7517  152.9641  155.3920 C   0  0  0  0  0  0  0  0  0  0  0  0
  138.7017  154.8794  156.3019 C   0  0  0  0  0  0  0  0  0  0  0  0
  137.8662  154.8289  155.2190 C   0  0  0  0  0  0  0  0  0  0  0  0
  139.6324  153.9072  156.3818 C   0  0  0  0  0  0  0  0  0  0  0  0
  139.7269  150.7352  153.1697 C   0  0  0  0  0  0  0  0  0  0  0  0
  138.9321  151.9563  153.2267 N   0  0  0  0  0  0  0  0  0  0  0  0
  140.4233  150.4825  154.0583 O   0  0  0  0  0  0  0  0  0  0  0  0
  138.3531  152.1506  152.4545 H   0  0  0  0  0  0  0  0  0  0  0  0
  139.6866  149.7658  151.9755 C   0  0  0  0  0  0  0  0  0  0  0  0
  140.9346  149.1821  151.5069 N   0  0  0  0  0  0  0  0  0  0  0  0
  141.1300  147.8385  151.4806 C   0  0  0  0  0  0  0  0  0  0  0  0
  142.2512  147.3998  152.0201 C   0  0  0  0  0  0  0  0  0  0  0  0
  143.2310  148.3540  152.5010 O   0  0  0  0  0  0  0  0  0  0  0  0
  143.0820  149.6436  151.8511 C   0  0  0  0  0  0  0  0  0  0  0  0
  142.0282  149.8742  151.1253 C   0  0  0  0  0  0  0  0  0  0  0  0
  134.2619  152.7117  151.0171 N   0  0  0  0  0  0  0  0  0  0  0  0
  133.5101  153.6493  151.7431 C   0  0  0  0  0  0  0  0  0  0  0  0
  132.4011  153.6852  151.7618 O   0  0  0  0  0  0  0  0  0  0  0  0
  135.2456  152.7377  151.0469 H   0  0  0  0  0  0  0  0  0  0  0  0
  134.6460  150.9352  149.4775 C   0  0  0  0  0  0  0  0  0  0  0  0
  133.5994  151.7273  150.2407 C   0  0  0  0  0  0  0  0  0  0  0  0
  132.7167  152.4727  149.2650 C   0  0  0  0  0  0  0  0  0  0  0  0
  132.7435  150.8185  151.0879 C   0  0  0  0  0  0  0  0  0  0  0  0
  136.1738  159.4902  155.9756 S   0  0  0  0  0  0  0  0  0  0  0  0
  136.3064  160.9864  154.9998 C   0  0  0  0  0  0  0  0  0  0  0  0
 38  3  1  0
 37 35  1  0
 15 14  2  0
 35 34  1  0
  3  2  1  0
 18 16  2  0
 19 23  1  0
 26 25  1  0
 19 21  2  0
  4  1  2  0
  8  3  2  0
  9  4  1  0
  8  4  1  0
 27 26  1  0
  7  1  1  0
  6 10  1  0
  9  5  1  0
 29 24  1  0
 20 14  1  0
  6  1  1  0
 19 20  1  0
 35 30  1  0
 17 13  2  0
  6  5  2  0
 27 28  1  0
  7  2  2  0
 31 30  1  0
 17 16  1  0
 18 15  1  0
 24 23  1  0
 13 14  1  0
  5 31  1  0
 25 24  1  0
 38 39  1  0
 35 36  1  0
  7 17  1  0
 32 31  2  0
 28 29  1  0
 30 33  1  0
 20 22  1  0
 10 11  1  0
 10 12  1  0
M  END
> <minimizedAffinity>
-9.15403

$$$$
55Z_Org43553


 39 42  0  0  0  0  0  0  0  0999 V2000
  138.7248  153.3845  156.3702 C   0  0  0  0  0  0  0  0  0  0  0  0
  138.4265  154.8221  158.1739 N   0  0  0  0  0  0  0  0  0  0  0  0
  139.3331  154.2113  158.8398 C   0  0  0  0  0  0  0  0  0  0  0  0
  139.7204  152.8042  157.1865 C   0  0  0  0  0  0  0  0  0  0  0  0
  139.4248  151.7314  154.9618 C   0  0  0  0  0  0  0  0  0  0  0  0
  138.6444  152.7144  155.1631 C   0  0  0  0  0  0  0  0  0  0  0  0
  138.0666  154.4472  156.9432 C   0  0  0  0  0  0  0  0  0  0  0  0
  139.9789  153.2314  158.3543 N   0  0  0  0  0  0  0  0  0  0  0  0
  140.4386  151.4555  156.2569 S   0  0  0  0  0  0  0  0  0  0  0  0
  137.7637  153.0469  154.1209 N   0  0  0  0  0  0  0  0  0  0  0  0
  137.1385  153.8001  154.2262 H   0  0  0  0  0  0  0  0  0  0  0  0
  137.7715  152.5268  153.2851 H   0  0  0  0  0  0  0  0  0  0  0  0
  136.5058  154.7715  155.1571 C   0  0  0  0  0  0  0  0  0  0  0  0
  135.5464  155.2730  154.4258 C   0  0  0  0  0  0  0  0  0  0  0  0
  134.9610  156.3902  154.9298 C   0  0  0  0  0  0  0  0  0  0  0  0
  136.3712  156.4510  156.8289 C   0  0  0  0  0  0  0  0  0  0  0  0
  136.9563  155.3219  156.3228 C   0  0  0  0  0  0  0  0  0  0  0  0
  135.3797  156.9899  156.0910 C   0  0  0  0  0  0  0  0  0  0  0  0
  134.6714  155.1634  151.9887 C   0  0  0  0  0  0  0  0  0  0  0  0
  135.2074  154.5630  153.2046 N   0  0  0  0  0  0  0  0  0  0  0  0
  134.4824  156.3045  151.9681 O   0  0  0  0  0  0  0  0  0  0  0  0
  135.3525  153.5893  153.1973 H   0  0  0  0  0  0  0  0  0  0  0  0
  134.3390  154.3458  150.7283 C   0  0  0  0  0  0  0  0  0  0  0  0
  133.3717  153.2634  150.8325 N   0  0  0  0  0  0  0  0  0  0  0  0
  133.5027  152.2737  151.7530 C   0  0  0  0  0  0  0  0  0  0  0  0
  133.3866  151.0385  151.3044 C   0  0  0  0  0  0  0  0  0  0  0  0
  133.0314  150.8154  149.9166 O   0  0  0  0  0  0  0  0  0  0  0  0
  132.3430  151.9622  149.3521 C   0  0  0  0  0  0  0  0  0  0  0  0
  132.3123  153.0788  150.0175 C   0  0  0  0  0  0  0  0  0  0  0  0
  140.8180  150.8485  153.1340 N   0  0  0  0  0  0  0  0  0  0  0  0
  139.5641  150.9558  153.7566 C   0  0  0  0  0  0  0  0  0  0  0  0
  138.6359  150.4741  153.3853 O   0  0  0  0  0  0  0  0  0  0  0  0
  141.6016  151.3028  153.5199 H   0  0  0  0  0  0  0  0  0  0  0  0
  139.9636  150.6123  150.9230 C   0  0  0  0  0  0  0  0  0  0  0  0
  140.9518  150.0836  151.9475 C   0  0  0  0  0  0  0  0  0  0  0  0
  140.5919  148.6607  152.3113 C   0  0  0  0  0  0  0  0  0  0  0  0
  142.3604  150.1156  151.4081 C   0  0  0  0  0  0  0  0  0  0  0  0
  139.7713  154.7588  160.4364 S   0  0  0  0  0  0  0  0  0  0  0  0
  140.0915  153.5605  161.7287 C   0  0  0  0  0  0  0  0  0  0  0  0
 38  3  1  0
 37 35  1  0
 15 14  2  0
 35 34  1  0
  3  2  1  0
 18 16  2  0
 19 23  1  0
 26 25  1  0
 19 21  2  0
  4  1  2  0
  8  3  2  0
  9  4  1  0
  8  4  1  0
 27 26  1  0
  7  1  1  0
  6 10  1  0
  9  5  1  0
 29 24  1  0
 20 14  1  0
  6  1  1  0
 19 20  1  0
 35 30  1  0
 17 13  2  0
  6  5  2  0
 27 28  1  0
  7  2  2  0
 31 30  1  0
 17 16  1  0
 18 15  1  0
 24 23  1  0
 13 14  1  0
  5 31  1  0
 25 24  1  0
 38 39  1  0
 35 36  1  0
  7 17  1  0
 32 31  2  0
 28 29  1  0
 30 33  1  0
 20 22  1  0
 10 11  1  0
 10 12  1  0
M  END
> <minimizedAffinity>
-8.94212

$$$$
55Z_Org43553


 39 42  0  0  0  0  0  0  0  0999 V2000
  138.9361  150.6463  153.0828 C   0  0  0  0  0  0  0  0  0  0  0  0
  138.4185  151.9837  154.9139 N   0  0  0  0  0  0  0  0  0  0  0  0
  139.5659  151.7556  155.4335 C   0  0  0  0  0  0  0  0  0  0  0  0
  140.1768  150.4851  153.7377 C   0  0  0  0  0  0  0  0  0  0  0  0
  139.9572  149.2647  151.5813 C   0  0  0  0  0  0  0  0  0  0  0  0
  138.9215  149.9291  151.9005 C   0  0  0  0  0  0  0  0  0  0  0  0
  138.0391  151.4462  153.7511 C   0  0  0  0  0  0  0  0  0  0  0  0
  140.4351  151.0336  154.8537 N   0  0  0  0  0  0  0  0  0  0  0  0
  141.1776  149.4194  152.7072 S   0  0  0  0  0  0  0  0  0  0  0  0
  137.8410  149.8859  151.0045 N   0  0  0  0  0  0  0  0  0  0  0  0
  137.0152  150.3832  151.2049 H   0  0  0  0  0  0  0  0  0  0  0  0
  137.9092  149.3584  150.1761 H   0  0  0  0  0  0  0  0  0  0  0  0
  136.3070  153.0984  153.7769 C   0  0  0  0  0  0  0  0  0  0  0  0
  135.1833  153.7194  153.5349 C   0  0  0  0  0  0  0  0  0  0  0  0
  134.3231  153.0579  152.7180 C   0  0  0  0  0  0  0  0  0  0  0  0
  135.7496  151.1839  152.4894 C   0  0  0  0  0  0  0  0  0  0  0  0
  136.6179  151.8542  153.3079 C   0  0  0  0  0  0  0  0  0  0  0  0
  134.5810  151.8027  152.2265 C   0  0  0  0  0  0  0  0  0  0  0  0
  135.0616  156.3057  153.4186 C   0  0  0  0  0  0  0  0  0  0  0  0
  135.0142  155.0338  154.1301 N   0  0  0  0  0  0  0  0  0  0  0  0
  135.2567  156.2986  152.2783 O   0  0  0  0  0  0  0  0  0  0  0  0
  134.8531  155.0689  155.1007 H   0  0  0  0  0  0  0  0  0  0  0  0
  134.8687  157.6629  154.1175 C   0  0  0  0  0  0  0  0  0  0  0  0
  135.7081  157.9851  155.2618 N   0  0  0  0  0  0  0  0  0  0  0  0
  135.8802  157.1147  156.2899 C   0  0  0  0  0  0  0  0  0  0  0  0
  135.7090  157.6020  157.5038 C   0  0  0  0  0  0  0  0  0  0  0  0
  135.4585  159.0200  157.6731 O   0  0  0  0  0  0  0  0  0  0  0  0
  135.9504  159.7863  156.5424 C   0  0  0  0  0  0  0  0  0  0  0  0
  136.3333  159.1630  155.4675 C   0  0  0  0  0  0  0  0  0  0  0  0
  139.2555  147.5537  149.9561 N   0  0  0  0  0  0  0  0  0  0  0  0
  140.1832  148.5240  150.3673 C   0  0  0  0  0  0  0  0  0  0  0  0
  141.1108  148.7794  149.8143 O   0  0  0  0  0  0  0  0  0  0  0  0
  138.4513  147.3788  150.4964 H   0  0  0  0  0  0  0  0  0  0  0  0
  140.7614  146.0263  148.9199 C   0  0  0  0  0  0  0  0  0  0  0  0
  139.4808  146.8264  148.7599 C   0  0  0  0  0  0  0  0  0  0  0  0
  139.6572  147.8507  147.6616 C   0  0  0  0  0  0  0  0  0  0  0  0
  138.3195  145.9268  148.4160 C   0  0  0  0  0  0  0  0  0  0  0  0
  140.0102  152.5004  156.9464 S   0  0  0  0  0  0  0  0  0  0  0  0
  139.4913  154.1789  157.2953 C   0  0  0  0  0  0  0  0  0  0  0  0
 38  3  1  0
 37 35  1  0
 15 14  2  0
 35 34  1  0
  3  2  1  0
 18 16  2  0
 19 23  1  0
 26 25  1  0
 19 21  2  0
  4  1  2  0
  8  3  2  0
  9  4  1  0
  8  4  1  0
 27 26  1  0
  7  1  1  0
  6 10  1  0
  9  5  1  0
 29 24  1  0
 20 14  1  0
  6  1  1  0
 19 20  1  0
 35 30  1  0
 17 13  2  0
  6  5  2  0
 27 28  1  0
  7  2  2  0
 31 30  1  0
 17 16  1  0
 18 15  1  0
 24 23  1  0
 13 14  1  0
  5 31  1  0
 25 24  1  0
 38 39  1  0
 35 36  1  0
  7 17  1  0
 32 31  2  0
 28 29  1  0
 30 33  1  0
 20 22  1  0
 10 11  1  0
 10 12  1  0
M  END
> <minimizedAffinity>
-8.92587

$$$$
55Z_Org43553


 39 42  0  0  0  0  0  0  0  0999 V2000
  135.9893  153.8909  153.6297 C   0  0  0  0  0  0  0  0  0  0  0  0
  136.0520  152.1740  152.0621 N   0  0  0  0  0  0  0  0  0  0  0  0
  135.0710  152.6912  151.4229 C   0  0  0  0  0  0  0  0  0  0  0  0
  134.9314  154.3810  152.8329 C   0  0  0  0  0  0  0  0  0  0  0  0
  135.4743  155.7625  154.8291 C   0  0  0  0  0  0  0  0  0  0  0  0
  136.2063  154.7304  154.7072 C   0  0  0  0  0  0  0  0  0  0  0  0
  136.5447  152.7164  153.1792 C   0  0  0  0  0  0  0  0  0  0  0  0
  134.5286  153.7796  151.7893 N   0  0  0  0  0  0  0  0  0  0  0  0
  134.3621  155.8963  153.5938 S   0  0  0  0  0  0  0  0  0  0  0  0
  137.1950  154.5366  155.6855 N   0  0  0  0  0  0  0  0  0  0  0  0
  137.7886  153.7526  155.6370 H   0  0  0  0  0  0  0  0  0  0  0  0
  137.2946  155.1847  156.4199 H   0  0  0  0  0  0  0  0  0  0  0  0
  138.2558  151.0715  152.8672 C   0  0  0  0  0  0  0  0  0  0  0  0
  139.2861  150.2986  153.0858 C   0  0  0  0  0  0  0  0  0  0  0  0
  139.8598  150.4346  154.3094 C   0  0  0  0  0  0  0  0  0  0  0  0
  138.3003  152.0653  155.0222 C   0  0  0  0  0  0  0  0  0  0  0  0
  137.7269  151.9313  153.7867 C   0  0  0  0  0  0  0  0  0  0  0  0
  139.3642  151.2761  155.2737 C   0  0  0  0  0  0  0  0  0  0  0  0
  141.0793  149.1976  151.5726 C   0  0  0  0  0  0  0  0  0  0  0  0
  139.7042  149.4323  151.9971 N   0  0  0  0  0  0  0  0  0  0  0  0
  141.9344  149.7421  152.1301 O   0  0  0  0  0  0  0  0  0  0  0  0
  138.9956  148.9615  151.5016 H   0  0  0  0  0  0  0  0  0  0  0  0
  141.4473  148.2598  150.4096 C   0  0  0  0  0  0  0  0  0  0  0  0
  140.6354  147.0731  150.1852 N   0  0  0  0  0  0  0  0  0  0  0  0
  140.4236  146.5769  148.9390 C   0  0  0  0  0  0  0  0  0  0  0  0
  139.1711  146.3123  148.6198 C   0  0  0  0  0  0  0  0  0  0  0  0
  138.1342  146.4610  149.6222 O   0  0  0  0  0  0  0  0  0  0  0  0
  138.6759  146.3707  150.9661 C   0  0  0  0  0  0  0  0  0  0  0  0
  139.9646  146.3916  151.1372 C   0  0  0  0  0  0  0  0  0  0  0  0
  135.2440  156.5365  157.1548 N   0  0  0  0  0  0  0  0  0  0  0  0
  135.5842  156.8025  155.8189 C   0  0  0  0  0  0  0  0  0  0  0  0
  135.9458  157.7835  155.4468 O   0  0  0  0  0  0  0  0  0  0  0  0
  134.9304  155.6405  157.4157 H   0  0  0  0  0  0  0  0  0  0  0  0
  135.4268  158.8980  157.4077 C   0  0  0  0  0  0  0  0  0  0  0  0
  135.3538  157.5628  158.1271 C   0  0  0  0  0  0  0  0  0  0  0  0
  136.6484  157.3151  158.8683 C   0  0  0  0  0  0  0  0  0  0  0  0
  134.2087  157.5385  159.1090 C   0  0  0  0  0  0  0  0  0  0  0  0
  134.4827  151.9452  149.9606 S   0  0  0  0  0  0  0  0  0  0  0  0
  132.7332  151.9967  149.5799 C   0  0  0  0  0  0  0  0  0  0  0  0
 38  3  1  0
 37 35  1  0
 15 14  2  0
 35 34  1  0
  3  2  1  0
 18 16  2  0
 19 23  1  0
 26 25  1  0
 19 21  2  0
  4  1  2  0
  8  3  2  0
  9  4  1  0
  8  4  1  0
 27 26  1  0
  7  1  1  0
  6 10  1  0
  9  5  1  0
 29 24  1  0
 20 14  1  0
  6  1  1  0
 19 20  1  0
 35 30  1  0
 17 13  2  0
  6  5  2  0
 27 28  1  0
  7  2  2  0
 31 30  1  0
 17 16  1  0
 18 15  1  0
 24 23  1  0
 13 14  1  0
  5 31  1  0
 25 24  1  0
 38 39  1  0
 35 36  1  0
  7 17  1  0
 32 31  2  0
 28 29  1  0
 30 33  1  0
 20 22  1  0
 10 11  1  0
 10 12  1  0
M  END
> <minimizedAffinity>
-8.86357

$$$$
55Z_Org43553


 39 42  0  0  0  0  0  0  0  0999 V2000
  138.6040  152.3228  152.9957 C   0  0  0  0  0  0  0  0  0  0  0  0
  140.6219  151.2878  153.5119 N   0  0  0  0  0  0  0  0  0  0  0  0
  140.5924  150.6316  152.4133 C   0  0  0  0  0  0  0  0  0  0  0  0
  138.6893  151.5660  151.8064 C   0  0  0  0  0  0  0  0  0  0  0  0
  136.6674  153.0023  151.9986 C   0  0  0  0  0  0  0  0  0  0  0  0
  137.4476  153.0813  152.9991 C   0  0  0  0  0  0  0  0  0  0  0  0
  139.6512  152.1345  153.8668 C   0  0  0  0  0  0  0  0  0  0  0  0
  139.6547  150.7756  151.5690 N   0  0  0  0  0  0  0  0  0  0  0  0
  137.2417  151.9583  150.8319 S   0  0  0  0  0  0  0  0  0  0  0  0
  137.0673  153.9549  154.0308 N   0  0  0  0  0  0  0  0  0  0  0  0
  137.6367  154.0527  154.8280 H   0  0  0  0  0  0  0  0  0  0  0  0
  136.2313  154.4695  153.9569 H   0  0  0  0  0  0  0  0  0  0  0  0
  138.7547  153.4570  155.6496 C   0  0  0  0  0  0  0  0  0  0  0  0
  138.6449  154.0979  156.7827 C   0  0  0  0  0  0  0  0  0  0  0  0
  139.7451  154.0560  157.5780 C   0  0  0  0  0  0  0  0  0  0  0  0
  140.9989  152.7825  156.0270 C   0  0  0  0  0  0  0  0  0  0  0  0
  139.8874  152.8206  155.2293 C   0  0  0  0  0  0  0  0  0  0  0  0
  140.9118  153.4391  157.2014 C   0  0  0  0  0  0  0  0  0  0  0  0
  137.0668  155.5765  158.2112 C   0  0  0  0  0  0  0  0  0  0  0  0
  137.3680  154.7325  157.0609 N   0  0  0  0  0  0  0  0  0  0  0  0
  137.8979  155.7699  158.9924 O   0  0  0  0  0  0  0  0  0  0  0  0
  136.6411  154.5790  156.4150 H   0  0  0  0  0  0  0  0  0  0  0  0
  135.6878  156.2202  158.4381 C   0  0  0  0  0  0  0  0  0  0  0  0
  135.2713  157.3064  157.5638 N   0  0  0  0  0  0  0  0  0  0  0  0
  135.0514  157.1125  156.2378 C   0  0  0  0  0  0  0  0  0  0  0  0
  135.6331  157.9665  155.4175 C   0  0  0  0  0  0  0  0  0  0  0  0
  136.3654  159.0923  155.9635 O   0  0  0  0  0  0  0  0  0  0  0  0
  135.9184  159.4177  157.3059 C   0  0  0  0  0  0  0  0  0  0  0  0
  135.1278  158.5967  157.9315 C   0  0  0  0  0  0  0  0  0  0  0  0
  135.4081  155.1136  152.1318 N   0  0  0  0  0  0  0  0  0  0  0  0
  135.4661  153.7603  151.7625 C   0  0  0  0  0  0  0  0  0  0  0  0
  134.6333  153.2040  151.2845 O   0  0  0  0  0  0  0  0  0  0  0  0
  136.1871  155.5448  152.5520 H   0  0  0  0  0  0  0  0  0  0  0  0
  134.2917  156.4369  150.4957 C   0  0  0  0  0  0  0  0  0  0  0  0
  134.2237  155.8572  151.8974 C   0  0  0  0  0  0  0  0  0  0  0  0
  134.2145  156.9801  152.9103 C   0  0  0  0  0  0  0  0  0  0  0  0
  132.9827  155.0183  152.0771 C   0  0  0  0  0  0  0  0  0  0  0  0
  141.8982  149.5532  151.9975 S   0  0  0  0  0  0  0  0  0  0  0  0
  141.6303  147.7824  152.0273 C   0  0  0  0  0  0  0  0  0  0  0  0
 38  3  1  0
 37 35  1  0
 15 14  2  0
 35 34  1  0
  3  2  1  0
 18 16  2  0
 19 23  1  0
 26 25  1  0
 19 21  2  0
  4  1  2  0
  8  3  2  0
  9  4  1  0
  8  4  1  0
 27 26  1  0
  7  1  1  0
  6 10  1  0
  9  5  1  0
 29 24  1  0
 20 14  1  0
  6  1  1  0
 19 20  1  0
 35 30  1  0
 17 13  2  0
  6  5  2  0
 27 28  1  0
  7  2  2  0
 31 30  1  0
 17 16  1  0
 18 15  1  0
 24 23  1  0
 13 14  1  0
  5 31  1  0
 25 24  1  0
 38 39  1  0
 35 36  1  0
  7 17  1  0
 32 31  2  0
 28 29  1  0
 30 33  1  0
 20 22  1  0
 10 11  1  0
 10 12  1  0
M  END
> <minimizedAffinity>
-8.85081

$$$$
55Z_Org43553


 39 42  0  0  0  0  0  0  0  0999 V2000
  138.6333  151.5599  153.2787 C   0  0  0  0  0  0  0  0  0  0  0  0
  138.9812  153.0886  154.9966 N   0  0  0  0  0  0  0  0  0  0  0  0
  139.9266  152.3704  155.4749 C   0  0  0  0  0  0  0  0  0  0  0  0
  139.7046  150.8636  153.8800 C   0  0  0  0  0  0  0  0  0  0  0  0
  138.7361  149.7710  151.8661 C   0  0  0  0  0  0  0  0  0  0  0  0
  138.1723  150.8680  152.1736 C   0  0  0  0  0  0  0  0  0  0  0  0
  138.2872  152.7300  153.9127 C   0  0  0  0  0  0  0  0  0  0  0  0
  140.2933  151.2870  154.9228 N   0  0  0  0  0  0  0  0  0  0  0  0
  139.9825  149.3893  152.9062 S   0  0  0  0  0  0  0  0  0  0  0  0
  137.1224  151.2941  151.3439 N   0  0  0  0  0  0  0  0  0  0  0  0
  136.6525  152.1371  151.5383 H   0  0  0  0  0  0  0  0  0  0  0  0
  136.8563  150.7499  150.5678 H   0  0  0  0  0  0  0  0  0  0  0  0
  136.9103  154.5838  154.5441 C   0  0  0  0  0  0  0  0  0  0  0  0
  136.0481  155.5635  154.4851 C   0  0  0  0  0  0  0  0  0  0  0  0
  135.4589  155.7411  153.2743 C   0  0  0  0  0  0  0  0  0  0  0  0
  136.5966  153.9156  152.2883 C   0  0  0  0  0  0  0  0  0  0  0  0
  137.1940  153.7416  153.5074 C   0  0  0  0  0  0  0  0  0  0  0  0
  135.7002  154.9191  152.2021 C   0  0  0  0  0  0  0  0  0  0  0  0
  135.7634  157.8035  155.7573 C   0  0  0  0  0  0  0  0  0  0  0  0
  135.8592  156.3500  155.6919 N   0  0  0  0  0  0  0  0  0  0  0  0
  135.8489  158.4116  154.7769 O   0  0  0  0  0  0  0  0  0  0  0  0
  135.7897  155.8576  156.5415 H   0  0  0  0  0  0  0  0  0  0  0  0
  135.5582  158.5698  157.0757 C   0  0  0  0  0  0  0  0  0  0  0  0
  134.7456  157.9613  158.1185 N   0  0  0  0  0  0  0  0  0  0  0  0
  135.1776  157.8762  159.4031 C   0  0  0  0  0  0  0  0  0  0  0  0
  135.0747  156.6930  159.9776 C   0  0  0  0  0  0  0  0  0  0  0  0
  134.4290  155.6087  159.2639 O   0  0  0  0  0  0  0  0  0  0  0  0
  133.5255  156.1069  158.2426 C   0  0  0  0  0  0  0  0  0  0  0  0
  133.5475  157.3694  157.9323 C   0  0  0  0  0  0  0  0  0  0  0  0
  139.3049  147.8461  150.4403 N   0  0  0  0  0  0  0  0  0  0  0  0
  138.4719  148.9414  150.7191 C   0  0  0  0  0  0  0  0  0  0  0  0
  137.5925  149.2325  150.1080 O   0  0  0  0  0  0  0  0  0  0  0  0
  140.0692  147.6448  151.0274 H   0  0  0  0  0  0  0  0  0  0  0  0
  140.2073  146.0754  149.1272 C   0  0  0  0  0  0  0  0  0  0  0  0
  139.0417  147.0310  149.3103 C   0  0  0  0  0  0  0  0  0  0  0  0
  138.9570  147.9608  148.1208 C   0  0  0  0  0  0  0  0  0  0  0  0
  137.7407  146.2790  149.4444 C   0  0  0  0  0  0  0  0  0  0  0  0
  140.8076  152.9003  156.8833 S   0  0  0  0  0  0  0  0  0  0  0  0
  139.9608  153.8212  158.1652 C   0  0  0  0  0  0  0  0  0  0  0  0
 38  3  1  0
 37 35  1  0
 15 14  2  0
 35 34  1  0
  3  2  1  0
 18 16  2  0
 19 23  1  0
 26 25  1  0
 19 21  2  0
  4  1  2  0
  8  3  2  0
  9  4  1  0
  8  4  1  0
 27 26  1  0
  7  1  1  0
  6 10  1  0
  9  5  1  0
 29 24  1  0
 20 14  1  0
  6  1  1  0
 19 20  1  0
 35 30  1  0
 17 13  2  0
  6  5  2  0
 27 28  1  0
  7  2  2  0
 31 30  1  0
 17 16  1  0
 18 15  1  0
 24 23  1  0
 13 14  1  0
  5 31  1  0
 25 24  1  0
 38 39  1  0
 35 36  1  0
  7 17  1  0
 32 31  2  0
 28 29  1  0
 30 33  1  0
 20 22  1  0
 10 11  1  0
 10 12  1  0
M  END
> <minimizedAffinity>
-8.84682

$$$$
55Z_Org43553


 39 42  0  0  0  0  0  0  0  0999 V2000
  136.5057  155.3464  155.9816 C   0  0  0  0  0  0  0  0  0  0  0  0
  137.0525  154.5869  153.8524 N   0  0  0  0  0  0  0  0  0  0  0  0
  136.0763  155.2404  153.3439 C   0  0  0  0  0  0  0  0  0  0  0  0
  135.4774  156.0425  155.3089 C   0  0  0  0  0  0  0  0  0  0  0  0
  135.5321  156.3684  157.7743 C   0  0  0  0  0  0  0  0  0  0  0  0
  136.4443  155.5967  157.3403 C   0  0  0  0  0  0  0  0  0  0  0  0
  137.3085  154.5866  155.1636 C   0  0  0  0  0  0  0  0  0  0  0  0
  135.3112  155.9657  154.0520 N   0  0  0  0  0  0  0  0  0  0  0  0
  134.5647  156.9533  156.5484 S   0  0  0  0  0  0  0  0  0  0  0  0
  137.3313  155.0676  158.2918 N   0  0  0  0  0  0  0  0  0  0  0  0
  138.0558  154.4646  158.0077 H   0  0  0  0  0  0  0  0  0  0  0  0
  137.2288  155.2998  159.2430 H   0  0  0  0  0  0  0  0  0  0  0  0
  138.8249  152.8275  154.5831 C   0  0  0  0  0  0  0  0  0  0  0  0
  139.8277  151.9912  154.6270 C   0  0  0  0  0  0  0  0  0  0  0  0
  140.6280  152.1072  155.7183 C   0  0  0  0  0  0  0  0  0  0  0  0
  139.3344  153.8481  156.6645 C   0  0  0  0  0  0  0  0  0  0  0  0
  138.5323  153.7340  155.5614 C   0  0  0  0  0  0  0  0  0  0  0  0
  140.3754  152.9940  156.7348 C   0  0  0  0  0  0  0  0  0  0  0  0
  139.2769  149.8174  153.3277 C   0  0  0  0  0  0  0  0  0  0  0  0
  139.9794  151.0830  153.5034 N   0  0  0  0  0  0  0  0  0  0  0  0
  138.5309  149.4771  154.1438 O   0  0  0  0  0  0  0  0  0  0  0  0
  140.6132  151.3456  152.7973 H   0  0  0  0  0  0  0  0  0  0  0  0
  139.4864  148.9071  152.1050 C   0  0  0  0  0  0  0  0  0  0  0  0
  140.8337  148.7395  151.5813 N   0  0  0  0  0  0  0  0  0  0  0  0
  141.4043  147.5137  151.4547 C   0  0  0  0  0  0  0  0  0  0  0  0
  142.6205  147.3808  151.9482 C   0  0  0  0  0  0  0  0  0  0  0  0
  143.3012  148.5420  152.4869 O   0  0  0  0  0  0  0  0  0  0  0  0
  142.7692  149.7749  151.9347 C   0  0  0  0  0  0  0  0  0  0  0  0
  141.6712  149.7407  151.2393 C   0  0  0  0  0  0  0  0  0  0  0  0
  134.9454  155.9174  160.1224 N   0  0  0  0  0  0  0  0  0  0  0  0
  135.3407  156.8248  159.1266 C   0  0  0  0  0  0  0  0  0  0  0  0
  135.5265  157.9050  159.2999 O   0  0  0  0  0  0  0  0  0  0  0  0
  134.7987  154.9702  159.8976 H   0  0  0  0  0  0  0  0  0  0  0  0
  133.7365  157.4931  161.4377 C   0  0  0  0  0  0  0  0  0  0  0  0
  134.7582  156.3700  161.4531 C   0  0  0  0  0  0  0  0  0  0  0  0
  136.0941  156.9065  161.9159 C   0  0  0  0  0  0  0  0  0  0  0  0
  134.3256  155.2569  162.3751 C   0  0  0  0  0  0  0  0  0  0  0  0
  135.8030  155.2152  151.6218 S   0  0  0  0  0  0  0  0  0  0  0  0
  134.5940  156.3216  150.8989 C   0  0  0  0  0  0  0  0  0  0  0  0
 38  3  1  0
 37 35  1  0
 15 14  2  0
 35 34  1  0
  3  2  1  0
 18 16  2  0
 19 23  1  0
 26 25  1  0
 19 21  2  0
  4  1  2  0
  8  3  2  0
  9  4  1  0
  8  4  1  0
 27 26  1  0
  7  1  1  0
  6 10  1  0
  9  5  1  0
 29 24  1  0
 20 14  1  0
  6  1  1  0
 19 20  1  0
 35 30  1  0
 17 13  2  0
  6  5  2  0
 27 28  1  0
  7  2  2  0
 31 30  1  0
 17 16  1  0
 18 15  1  0
 24 23  1  0
 13 14  1  0
  5 31  1  0
 25 24  1  0
 38 39  1  0
 35 36  1  0
  7 17  1  0
 32 31  2  0
 28 29  1  0
 30 33  1  0
 20 22  1  0
 10 11  1  0
 10 12  1  0
M  END
> <minimizedAffinity>
-8.83749

$$$$
55Z_Org43553


 39 42  0  0  0  0  0  0  0  0999 V2000
  137.0391  151.6495  151.4833 C   0  0  0  0  0  0  0  0  0  0  0  0
  136.4282  150.8565  149.3840 N   0  0  0  0  0  0  0  0  0  0  0  0
  137.5953  150.3618  149.2062 C   0  0  0  0  0  0  0  0  0  0  0  0
  138.2806  151.0446  151.1879 C   0  0  0  0  0  0  0  0  0  0  0  0
  138.1608  152.1793  153.3984 C   0  0  0  0  0  0  0  0  0  0  0  0
  137.0822  152.2483  152.7292 C   0  0  0  0  0  0  0  0  0  0  0  0
  136.0944  151.5243  150.4919 C   0  0  0  0  0  0  0  0  0  0  0  0
  138.5009  150.4396  150.0932 N   0  0  0  0  0  0  0  0  0  0  0  0
  139.3479  151.3269  152.5952 S   0  0  0  0  0  0  0  0  0  0  0  0
  136.0080  152.9263  153.3282 N   0  0  0  0  0  0  0  0  0  0  0  0
  135.1503  153.0079  152.8518 H   0  0  0  0  0  0  0  0  0  0  0  0
  136.1127  153.3198  154.2245 H   0  0  0  0  0  0  0  0  0  0  0  0
  134.5183  153.1372  151.2953 C   0  0  0  0  0  0  0  0  0  0  0  0
  133.4093  153.8050  151.4709 C   0  0  0  0  0  0  0  0  0  0  0  0
  132.3466  153.3572  150.7532 C   0  0  0  0  0  0  0  0  0  0  0  0
  133.5659  151.5778  149.7804 C   0  0  0  0  0  0  0  0  0  0  0  0
  134.6373  152.0338  150.4997 C   0  0  0  0  0  0  0  0  0  0  0  0
  132.4082  152.2487  149.9463 C   0  0  0  0  0  0  0  0  0  0  0  0
  134.2886  156.1340  152.1919 C   0  0  0  0  0  0  0  0  0  0  0  0
  133.4611  154.9464  152.3681 N   0  0  0  0  0  0  0  0  0  0  0  0
  134.9811  156.1976  151.2673 O   0  0  0  0  0  0  0  0  0  0  0  0
  132.8861  154.9153  153.1666 H   0  0  0  0  0  0  0  0  0  0  0  0
  134.2877  157.3091  153.1851 C   0  0  0  0  0  0  0  0  0  0  0  0
  135.3856  157.4234  154.1335 N   0  0  0  0  0  0  0  0  0  0  0  0
  136.0720  156.3348  154.5670 C   0  0  0  0  0  0  0  0  0  0  0  0
  136.2336  156.2268  155.8719 C   0  0  0  0  0  0  0  0  0  0  0  0
  135.7761  157.2964  156.7371 O   0  0  0  0  0  0  0  0  0  0  0  0
  135.6846  158.5569  156.0225 C   0  0  0  0  0  0  0  0  0  0  0  0
  135.7923  158.5649  154.7268 C   0  0  0  0  0  0  0  0  0  0  0  0
  139.6972  152.9693  155.1523 N   0  0  0  0  0  0  0  0  0  0  0  0
  138.3931  152.6558  154.7372 C   0  0  0  0  0  0  0  0  0  0  0  0
  137.4914  152.7490  155.3773 O   0  0  0  0  0  0  0  0  0  0  0  0
  140.4526  152.8635  154.5299 H   0  0  0  0  0  0  0  0  0  0  0  0
  139.3235  152.4388  157.4443 C   0  0  0  0  0  0  0  0  0  0  0  0
  139.9225  153.4387  156.4712 C   0  0  0  0  0  0  0  0  0  0  0  0
  139.1932  154.7583  156.5876 C   0  0  0  0  0  0  0  0  0  0  0  0
  141.3886  153.6569  156.7527 C   0  0  0  0  0  0  0  0  0  0  0  0
  137.9660  149.4853  147.7450 S   0  0  0  0  0  0  0  0  0  0  0  0
  139.1687  148.1585  147.7869 C   0  0  0  0  0  0  0  0  0  0  0  0
 38  3  1  0
 37 35  1  0
 15 14  2  0
 35 34  1  0
  3  2  1  0
 18 16  2  0
 19 23  1  0
 26 25  1  0
 19 21  2  0
  4  1  2  0
  8  3  2  0
  9  4  1  0
  8  4  1  0
 27 26  1  0
  7  1  1  0
  6 10  1  0
  9  5  1  0
 29 24  1  0
 20 14  1  0
  6  1  1  0
 19 20  1  0
 35 30  1  0
 17 13  2  0
  6  5  2  0
 27 28  1  0
  7  2  2  0
 31 30  1  0
 17 16  1  0
 18 15  1  0
 24 23  1  0
 13 14  1  0
  5 31  1  0
 25 24  1  0
 38 39  1  0
 35 36  1  0
  7 17  1  0
 32 31  2  0
 28 29  1  0
 30 33  1  0
 20 22  1  0
 10 11  1  0
 10 12  1  0
M  END
> <minimizedAffinity>
-8.81339

$$$$
55Z_Org43553


 39 42  0  0  0  0  0  0  0  0999 V2000
  136.7876  155.4098  156.9296 C   0  0  0  0  0  0  0  0  0  0  0  0
  137.7493  154.9908  159.0053 N   0  0  0  0  0  0  0  0  0  0  0  0
  136.8016  155.6164  159.5960 C   0  0  0  0  0  0  0  0  0  0  0  0
  135.7857  156.0540  157.6882 C   0  0  0  0  0  0  0  0  0  0  0  0
  135.4362  156.1008  155.2258 C   0  0  0  0  0  0  0  0  0  0  0  0
  136.4961  155.4950  155.5804 C   0  0  0  0  0  0  0  0  0  0  0  0
  137.8071  154.8678  157.6763 C   0  0  0  0  0  0  0  0  0  0  0  0
  135.8307  156.1263  158.9555 N   0  0  0  0  0  0  0  0  0  0  0  0
  134.5745  156.6803  156.5307 S   0  0  0  0  0  0  0  0  0  0  0  0
  137.2840  154.9459  154.5557 N   0  0  0  0  0  0  0  0  0  0  0  0
  138.1150  154.4665  154.7769 H   0  0  0  0  0  0  0  0  0  0  0  0
  137.0053  155.0402  153.6162 H   0  0  0  0  0  0  0  0  0  0  0  0
  138.6549  153.1344  156.2593 C   0  0  0  0  0  0  0  0  0  0  0  0
  139.4803  152.3343  155.6386 C   0  0  0  0  0  0  0  0  0  0  0  0
  140.7942  152.5260  155.9248 C   0  0  0  0  0  0  0  0  0  0  0  0
  140.3559  154.2650  157.4684 C   0  0  0  0  0  0  0  0  0  0  0  0
  139.0328  154.0746  157.1746 C   0  0  0  0  0  0  0  0  0  0  0  0
  141.2283  153.4495  156.8425 C   0  0  0  0  0  0  0  0  0  0  0  0
  139.6340  150.6030  153.7160 C   0  0  0  0  0  0  0  0  0  0  0  0
  138.9011  151.3812  154.7077 N   0  0  0  0  0  0  0  0  0  0  0  0
  140.7798  150.7414  153.6359 O   0  0  0  0  0  0  0  0  0  0  0  0
  137.9264  151.2489  154.7502 H   0  0  0  0  0  0  0  0  0  0  0  0
  138.9510  149.6060  152.7636 C   0  0  0  0  0  0  0  0  0  0  0  0
  139.7600  148.9348  151.7573 N   0  0  0  0  0  0  0  0  0  0  0  0
  139.3963  147.7375  151.2296 C   0  0  0  0  0  0  0  0  0  0  0  0
  140.3257  146.8014  151.2075 C   0  0  0  0  0  0  0  0  0  0  0  0
  141.6722  147.1247  151.6368 O   0  0  0  0  0  0  0  0  0  0  0  0
  141.9377  148.5481  151.5308 C   0  0  0  0  0  0  0  0  0  0  0  0
  140.9534  149.3648  151.2972 C   0  0  0  0  0  0  0  0  0  0  0  0
  134.7827  155.0978  153.0745 N   0  0  0  0  0  0  0  0  0  0  0  0
  134.9059  156.2316  153.8935 C   0  0  0  0  0  0  0  0  0  0  0  0
  134.6169  157.2592  153.5902 O   0  0  0  0  0  0  0  0  0  0  0  0
  135.0585  154.2141  153.4095 H   0  0  0  0  0  0  0  0  0  0  0  0
  132.7805  155.5566  151.8683 C   0  0  0  0  0  0  0  0  0  0  0  0
  134.2596  155.2301  151.7632 C   0  0  0  0  0  0  0  0  0  0  0  0
  134.4355  153.8858  151.0934 C   0  0  0  0  0  0  0  0  0  0  0  0
  134.9908  156.2806  150.9644 C   0  0  0  0  0  0  0  0  0  0  0  0
  136.7722  155.7288  161.3360 S   0  0  0  0  0  0  0  0  0  0  0  0
  135.6811  156.9062  162.1308 C   0  0  0  0  0  0  0  0  0  0  0  0
 38  3  1  0
 37 35  1  0
 15 14  2  0
 35 34  1  0
  3  2  1  0
 18 16  2  0
 19 23  1  0
 26 25  1  0
 19 21  2  0
  4  1  2  0
  8  3  2  0
  9  4  1  0
  8  4  1  0
 27 26  1  0
  7  1  1  0
  6 10  1  0
  9  5  1  0
 29 24  1  0
 20 14  1  0
  6  1  1  0
 19 20  1  0
 35 30  1  0
 17 13  2  0
  6  5  2  0
 27 28  1  0
  7  2  2  0
 31 30  1  0
 17 16  1  0
 18 15  1  0
 24 23  1  0
 13 14  1  0
  5 31  1  0
 25 24  1  0
 38 39  1  0
 35 36  1  0
  7 17  1  0
 32 31  2  0
 28 29  1  0
 30 33  1  0
 20 22  1  0
 10 11  1  0
 10 12  1  0
M  END
> <minimizedAffinity>
-8.80815

$$$$
