55Z_Org43553


 39 42  0  0  0  0  0  0  0  0999 V2000
  138.1806  152.0548  153.3098 C   0  0  0  0  0  0  0  0  0  0  0  0
  138.2131  153.6337  155.0172 N   0  0  0  0  0  0  0  0  0  0  0  0
  139.2575  153.0958  155.5255 C   0  0  0  0  0  0  0  0  0  0  0  0
  139.3421  151.5615  153.9437 C   0  0  0  0  0  0  0  0  0  0  0  0
  138.6298  150.3010  151.9210 C   0  0  0  0  0  0  0  0  0  0  0  0
  137.8752  151.2845  152.2025 C   0  0  0  0  0  0  0  0  0  0  0  0
  137.6196  153.1508  153.9220 C   0  0  0  0  0  0  0  0  0  0  0  0
  139.8217  152.0894  154.9947 N   0  0  0  0  0  0  0  0  0  0  0  0
  139.8977  150.1514  152.9939 S   0  0  0  0  0  0  0  0  0  0  0  0
  136.7877  151.5139  151.3440 N   0  0  0  0  0  0  0  0  0  0  0  0
  136.1729  152.2629  151.5177 H   0  0  0  0  0  0  0  0  0  0  0  0
  136.6402  150.9257  150.5685 H   0  0  0  0  0  0  0  0  0  0  0  0
  135.9677  154.7929  154.4751 C   0  0  0  0  0  0  0  0  0  0  0  0
  134.9597  155.6182  154.3772 C   0  0  0  0  0  0  0  0  0  0  0  0
  134.3429  155.6343  153.1671 C   0  0  0  0  0  0  0  0  0  0  0  0
  135.7523  153.9631  152.2618 C   0  0  0  0  0  0  0  0  0  0  0  0
  136.3765  153.9522  153.4798 C   0  0  0  0  0  0  0  0  0  0  0  0
  134.7066  154.8048  152.1361 C   0  0  0  0  0  0  0  0  0  0  0  0
  135.2637  156.2917  156.8614 C   0  0  0  0  0  0  0  0  0  0  0  0
  134.6543  156.4283  155.5438 N   0  0  0  0  0  0  0  0  0  0  0  0
  136.0600  155.4682  157.0236 O   0  0  0  0  0  0  0  0  0  0  0  0
  133.9750  157.1326  155.4350 H   0  0  0  0  0  0  0  0  0  0  0  0
  134.8917  157.1918  158.0526 C   0  0  0  0  0  0  0  0  0  0  0  0
  134.9415  156.6310  159.3945 N   0  0  0  0  0  0  0  0  0  0  0  0
  134.3607  157.2546  160.4519 C   0  0  0  0  0  0  0  0  0  0  0  0
  135.1085  157.3980  161.5293 C   0  0  0  0  0  0  0  0  0  0  0  0
  136.4319  156.8068  161.5613 O   0  0  0  0  0  0  0  0  0  0  0  0
  136.5454  155.7042  160.6238 C   0  0  0  0  0  0  0  0  0  0  0  0
  135.6019  155.5096  159.7507 C   0  0  0  0  0  0  0  0  0  0  0  0
  139.2279  148.2037  150.7788 N   0  0  0  0  0  0  0  0  0  0  0  0
  138.5432  149.4294  150.7780 C   0  0  0  0  0  0  0  0  0  0  0  0
  137.9158  149.7972  149.9398 O   0  0  0  0  0  0  0  0  0  0  0  0
  139.7670  147.9395  151.5590 H   0  0  0  0  0  0  0  0  0  0  0  0
  137.9700  146.4022  149.8586 C   0  0  0  0  0  0  0  0  0  0  0  0
  139.1401  147.3475  149.6518 C   0  0  0  0  0  0  0  0  0  0  0  0
  140.4289  146.5575  149.6117 C   0  0  0  0  0  0  0  0  0  0  0  0
  138.9921  148.1191  148.3638 C   0  0  0  0  0  0  0  0  0  0  0  0
  139.9972  153.7825  156.9475 S   0  0  0  0  0  0  0  0  0  0  0  0
  139.0217  154.0125  158.4321 C   0  0  0  0  0  0  0  0  0  0  0  0
 38  3  1  0
 37 35  1  0
 15 14  2  0
 35 34  1  0
  3  2  1  0
 18 16  2  0
 19 23  1  0
 26 25  1  0
 19 21  2  0
  4  1  2  0
  8  3  2  0
  9  4  1  0
  8  4  1  0
 27 26  1  0
  7  1  1  0
  6 10  1  0
  9  5  1  0
 29 24  1  0
 20 14  1  0
  6  1  1  0
 19 20  1  0
 35 30  1  0
 17 13  2  0
  6  5  2  0
 27 28  1  0
  7  2  2  0
 31 30  1  0
 17 16  1  0
 18 15  1  0
 24 23  1  0
 13 14  1  0
  5 31  1  0
 25 24  1  0
 38 39  1  0
 35 36  1  0
  7 17  1  0
 32 31  2  0
 28 29  1  0
 30 33  1  0
 20 22  1  0
 10 11  1  0
 10 12  1  0
M  END
> <minimizedAffinity>
-10.34790

> <CNNscore>
0.7837381363

> <CNNaffinity>
7.4364624023

> <CNN_VS>
5.8282389641

> <CNNaffinity_variance>
0.0853100419

$$$$
55Z_Org43553


 39 42  0  0  0  0  0  0  0  0999 V2000
  137.7311  152.4992  153.1497 C   0  0  0  0  0  0  0  0  0  0  0  0
  136.5278  154.2004  154.1828 N   0  0  0  0  0  0  0  0  0  0  0  0
  135.6338  154.1546  153.2679 C   0  0  0  0  0  0  0  0  0  0  0  0
  136.6749  152.5220  152.2124 C   0  0  0  0  0  0  0  0  0  0  0  0
  138.4657  150.8609  151.7416 C   0  0  0  0  0  0  0  0  0  0  0  0
  138.6668  151.5451  152.7939 C   0  0  0  0  0  0  0  0  0  0  0  0
  137.6060  153.4115  154.1709 C   0  0  0  0  0  0  0  0  0  0  0  0
  135.6951  153.3243  152.3088 N   0  0  0  0  0  0  0  0  0  0  0  0
  137.0377  151.2726  150.9850 S   0  0  0  0  0  0  0  0  0  0  0  0
  139.8336  151.2590  153.5214 N   0  0  0  0  0  0  0  0  0  0  0  0
  140.0361  151.7603  154.3441 H   0  0  0  0  0  0  0  0  0  0  0  0
  140.4490  150.5571  153.2086 H   0  0  0  0  0  0  0  0  0  0  0  0
  137.8561  154.0561  156.4628 C   0  0  0  0  0  0  0  0  0  0  0  0
  138.3882  154.2936  157.6322 C   0  0  0  0  0  0  0  0  0  0  0  0
  139.7191  154.0380  157.7229 C   0  0  0  0  0  0  0  0  0  0  0  0
  139.8965  153.3783  155.4574 C   0  0  0  0  0  0  0  0  0  0  0  0
  138.5542  153.6307  155.3691 C   0  0  0  0  0  0  0  0  0  0  0  0
  140.4702  153.6182  156.6537 C   0  0  0  0  0  0  0  0  0  0  0  0
  137.9054  155.2909  159.9751 C   0  0  0  0  0  0  0  0  0  0  0  0
  137.4966  154.7578  158.6810 N   0  0  0  0  0  0  0  0  0  0  0  0
  139.0344  155.3552  160.2190 O   0  0  0  0  0  0  0  0  0  0  0  0
  136.5298  154.7081  158.5019 H   0  0  0  0  0  0  0  0  0  0  0  0
  136.9008  155.7688  161.0381 C   0  0  0  0  0  0  0  0  0  0  0  0
  135.9791  156.8418  160.6961 N   0  0  0  0  0  0  0  0  0  0  0  0
  135.2432  157.4807  161.6418 C   0  0  0  0  0  0  0  0  0  0  0  0
  133.9526  157.6009  161.3962 C   0  0  0  0  0  0  0  0  0  0  0  0
  133.4254  157.1525  160.1222 O   0  0  0  0  0  0  0  0  0  0  0  0
  134.4564  157.1214  159.1005 C   0  0  0  0  0  0  0  0  0  0  0  0
  135.7014  157.2669  159.4460 C   0  0  0  0  0  0  0  0  0  0  0  0
  138.6539  148.7413  150.5034 N   0  0  0  0  0  0  0  0  0  0  0  0
  139.2615  149.7707  151.2399 C   0  0  0  0  0  0  0  0  0  0  0  0
  140.3448  149.8181  151.4763 O   0  0  0  0  0  0  0  0  0  0  0  0
  137.6851  148.7637  150.3299 H   0  0  0  0  0  0  0  0  0  0  0  0
  140.1338  148.1288  148.7402 C   0  0  0  0  0  0  0  0  0  0  0  0
  139.4405  147.6694  150.0106 C   0  0  0  0  0  0  0  0  0  0  0  0
  138.4810  146.5465  149.6865 C   0  0  0  0  0  0  0  0  0  0  0  0
  140.4423  147.1858  151.0298 C   0  0  0  0  0  0  0  0  0  0  0  0
  134.2394  155.1987  153.3475 S   0  0  0  0  0  0  0  0  0  0  0  0
  132.8159  154.8583  152.3149 C   0  0  0  0  0  0  0  0  0  0  0  0
 38  3  1  0
 37 35  1  0
 15 14  2  0
 35 34  1  0
  3  2  1  0
 18 16  2  0
 19 23  1  0
 26 25  1  0
 19 21  2  0
  4  1  2  0
  8  3  2  0
  9  4  1  0
  8  4  1  0
 27 26  1  0
  7  1  1  0
  6 10  1  0
  9  5  1  0
 29 24  1  0
 20 14  1  0
  6  1  1  0
 19 20  1  0
 35 30  1  0
 17 13  2  0
  6  5  2  0
 27 28  1  0
  7  2  2  0
 31 30  1  0
 17 16  1  0
 18 15  1  0
 24 23  1  0
 13 14  1  0
  5 31  1  0
 25 24  1  0
 38 39  1  0
 35 36  1  0
  7 17  1  0
 32 31  2  0
 28 29  1  0
 30 33  1  0
 20 22  1  0
 10 11  1  0
 10 12  1  0
M  END
> <minimizedAffinity>
-10.25337

> <CNNscore>
0.7060114741

> <CNNaffinity>
7.1813073158

> <CNN_VS>
5.0700855255

> <CNNaffinity_variance>
0.1149042845

$$$$
55Z_Org43553


 39 42  0  0  0  0  0  0  0  0999 V2000
  136.1547  155.2544  156.5987 C   0  0  0  0  0  0  0  0  0  0  0  0
  136.0935  155.0205  154.2855 N   0  0  0  0  0  0  0  0  0  0  0  0
  134.9942  155.6735  154.2258 C   0  0  0  0  0  0  0  0  0  0  0  0
  134.9573  155.9790  156.4095 C   0  0  0  0  0  0  0  0  0  0  0  0
  135.7034  155.7754  158.7738 C   0  0  0  0  0  0  0  0  0  0  0  0
  136.4760  155.2024  157.9427 C   0  0  0  0  0  0  0  0  0  0  0  0
  136.7128  154.7646  155.4413 C   0  0  0  0  0  0  0  0  0  0  0  0
  134.4420  156.1567  155.2624 N   0  0  0  0  0  0  0  0  0  0  0  0
  134.4098  156.5155  158.0255 S   0  0  0  0  0  0  0  0  0  0  0  0
  137.6127  154.5677  158.4693 N   0  0  0  0  0  0  0  0  0  0  0  0
  138.2434  154.1092  157.8681 H   0  0  0  0  0  0  0  0  0  0  0  0
  137.7790  154.5811  159.4396 H   0  0  0  0  0  0  0  0  0  0  0  0
  137.8632  152.9511  154.3835 C   0  0  0  0  0  0  0  0  0  0  0  0
  138.8102  152.1263  154.0233 C   0  0  0  0  0  0  0  0  0  0  0  0
  140.0269  152.3683  154.5762 C   0  0  0  0  0  0  0  0  0  0  0  0
  139.2477  154.2060  155.8470 C   0  0  0  0  0  0  0  0  0  0  0  0
  138.0236  153.9646  155.2845 C   0  0  0  0  0  0  0  0  0  0  0  0
  140.2417  153.3665  155.4932 C   0  0  0  0  0  0  0  0  0  0  0  0
  139.3484  150.0570  152.5585 C   0  0  0  0  0  0  0  0  0  0  0  0
  138.4568  151.0943  153.0638 N   0  0  0  0  0  0  0  0  0  0  0  0
  140.4430  150.0334  152.9324 O   0  0  0  0  0  0  0  0  0  0  0  0
  137.5327  151.0954  152.7243 H   0  0  0  0  0  0  0  0  0  0  0  0
  138.9010  148.9912  151.5430 C   0  0  0  0  0  0  0  0  0  0  0  0
  139.3055  149.1373  150.1527 N   0  0  0  0  0  0  0  0  0  0  0  0
  138.9431  150.2164  149.4123 C   0  0  0  0  0  0  0  0  0  0  0  0
  138.4240  149.9642  148.2260 C   0  0  0  0  0  0  0  0  0  0  0  0
  138.3685  148.5961  147.7493 O   0  0  0  0  0  0  0  0  0  0  0  0
  139.3593  147.7627  148.4061 C   0  0  0  0  0  0  0  0  0  0  0  0
  139.9989  148.2260  149.4390 C   0  0  0  0  0  0  0  0  0  0  0  0
  135.0771  156.7904  160.9276 N   0  0  0  0  0  0  0  0  0  0  0  0
  135.8923  155.9131  160.1947 C   0  0  0  0  0  0  0  0  0  0  0  0
  136.7000  155.2920  160.6344 O   0  0  0  0  0  0  0  0  0  0  0  0
  134.3771  157.3114  160.4717 H   0  0  0  0  0  0  0  0  0  0  0  0
  136.7519  156.8255  162.6211 C   0  0  0  0  0  0  0  0  0  0  0  0
  135.2655  156.9233  162.3267 C   0  0  0  0  0  0  0  0  0  0  0  0
  134.5440  155.7601  162.9694 C   0  0  0  0  0  0  0  0  0  0  0  0
  134.6924  158.2147  162.8558 C   0  0  0  0  0  0  0  0  0  0  0  0
  134.2420  155.9906  152.6849 S   0  0  0  0  0  0  0  0  0  0  0  0
  132.9057  154.9416  152.1171 C   0  0  0  0  0  0  0  0  0  0  0  0
 38  3  1  0
 37 35  1  0
 15 14  2  0
 35 34  1  0
  3  2  1  0
 18 16  2  0
 19 23  1  0
 26 25  1  0
 19 21  2  0
  4  1  2  0
  8  3  2  0
  9  4  1  0
  8  4  1  0
 27 26  1  0
  7  1  1  0
  6 10  1  0
  9  5  1  0
 29 24  1  0
 20 14  1  0
  6  1  1  0
 19 20  1  0
 35 30  1  0
 17 13  2  0
  6  5  2  0
 27 28  1  0
  7  2  2  0
 31 30  1  0
 17 16  1  0
 18 15  1  0
 24 23  1  0
 13 14  1  0
  5 31  1  0
 25 24  1  0
 38 39  1  0
 35 36  1  0
  7 17  1  0
 32 31  2  0
 28 29  1  0
 30 33  1  0
 20 22  1  0
 10 11  1  0
 10 12  1  0
M  END
> <minimizedAffinity>
-10.45377

> <CNNscore>
0.6255910397

> <CNNaffinity>
7.0741271973

> <CNN_VS>
4.4255104065

> <CNNaffinity_variance>
0.1157116294

$$$$
55Z_Org43553


 39 42  0  0  0  0  0  0  0  0999 V2000
  137.7175  152.4939  152.9862 C   0  0  0  0  0  0  0  0  0  0  0  0
  136.5480  154.1731  154.0916 N   0  0  0  0  0  0  0  0  0  0  0  0
  135.6175  154.1345  153.2134 C   0  0  0  0  0  0  0  0  0  0  0  0
  136.6237  152.5231  152.0934 C   0  0  0  0  0  0  0  0  0  0  0  0
  138.4030  150.8799  151.5263 C   0  0  0  0  0  0  0  0  0  0  0  0
  138.6432  151.5507  152.5790 C   0  0  0  0  0  0  0  0  0  0  0  0
  137.6293  153.3913  154.0244 C   0  0  0  0  0  0  0  0  0  0  0  0
  135.6441  153.3179  152.2411 N   0  0  0  0  0  0  0  0  0  0  0  0
  136.9429  151.2931  150.8347 S   0  0  0  0  0  0  0  0  0  0  0  0
  139.8405  151.2618  153.2540 N   0  0  0  0  0  0  0  0  0  0  0  0
  140.0737  151.7530  154.0747 H   0  0  0  0  0  0  0  0  0  0  0  0
  140.4465  150.5681  152.9064 H   0  0  0  0  0  0  0  0  0  0  0  0
  137.9579  153.8500  156.3509 C   0  0  0  0  0  0  0  0  0  0  0  0
  138.5363  154.0358  157.5075 C   0  0  0  0  0  0  0  0  0  0  0  0
  139.8891  153.9134  157.5021 C   0  0  0  0  0  0  0  0  0  0  0  0
  139.9881  153.4820  155.1776 C   0  0  0  0  0  0  0  0  0  0  0  0
  138.6246  153.5997  155.1857 C   0  0  0  0  0  0  0  0  0  0  0  0
  140.6093  153.6721  156.3591 C   0  0  0  0  0  0  0  0  0  0  0  0
  136.3224  154.8589  158.5743 C   0  0  0  0  0  0  0  0  0  0  0  0
  137.6709  154.3083  158.6420 N   0  0  0  0  0  0  0  0  0  0  0  0
  135.8785  155.1180  157.5378 O   0  0  0  0  0  0  0  0  0  0  0  0
  138.0267  154.1028  159.5367 H   0  0  0  0  0  0  0  0  0  0  0  0
  135.4607  155.1173  159.8225 C   0  0  0  0  0  0  0  0  0  0  0  0
  135.7267  156.3040  160.6218 N   0  0  0  0  0  0  0  0  0  0  0  0
  136.7976  156.3806  161.4533 C   0  0  0  0  0  0  0  0  0  0  0  0
  136.5544  156.7879  162.6843 C   0  0  0  0  0  0  0  0  0  0  0  0
  135.2168  157.2190  163.0405 O   0  0  0  0  0  0  0  0  0  0  0  0
  134.4643  157.6400  161.8725 C   0  0  0  0  0  0  0  0  0  0  0  0
  134.9388  157.3974  160.6865 C   0  0  0  0  0  0  0  0  0  0  0  0
  138.5421  148.6611  150.4687 N   0  0  0  0  0  0  0  0  0  0  0  0
  139.1837  149.8017  150.9772 C   0  0  0  0  0  0  0  0  0  0  0  0
  140.2835  149.9492  150.9912 O   0  0  0  0  0  0  0  0  0  0  0  0
  137.5599  148.5972  150.4873 H   0  0  0  0  0  0  0  0  0  0  0  0
  139.9494  148.0823  148.6360 C   0  0  0  0  0  0  0  0  0  0  0  0
  139.3138  147.6013  149.9283 C   0  0  0  0  0  0  0  0  0  0  0  0
  138.3486  146.4761  149.6302 C   0  0  0  0  0  0  0  0  0  0  0  0
  140.3612  147.1112  150.8974 C   0  0  0  0  0  0  0  0  0  0  0  0
  134.2216  155.1686  153.3647 S   0  0  0  0  0  0  0  0  0  0  0  0
  132.7454  154.8114  152.4151 C   0  0  0  0  0  0  0  0  0  0  0  0
 38  3  1  0
 37 35  1  0
 15 14  2  0
 35 34  1  0
  3  2  1  0
 18 16  2  0
 19 23  1  0
 26 25  1  0
 19 21  2  0
  4  1  2  0
  8  3  2  0
  9  4  1  0
  8  4  1  0
 27 26  1  0
  7  1  1  0
  6 10  1  0
  9  5  1  0
 29 24  1  0
 20 14  1  0
  6  1  1  0
 19 20  1  0
 35 30  1  0
 17 13  2  0
  6  5  2  0
 27 28  1  0
  7  2  2  0
 31 30  1  0
 17 16  1  0
 18 15  1  0
 24 23  1  0
 13 14  1  0
  5 31  1  0
 25 24  1  0
 38 39  1  0
 35 36  1  0
  7 17  1  0
 32 31  2  0
 28 29  1  0
 30 33  1  0
 20 22  1  0
 10 11  1  0
 10 12  1  0
M  END
> <minimizedAffinity>
-10.08368

> <CNNscore>
0.6152998209

> <CNNaffinity>
7.1361455917

> <CNN_VS>
4.3908691406

> <CNNaffinity_variance>
0.1469290555

$$$$
55Z_Org43553


 39 42  0  0  0  0  0  0  0  0999 V2000
  135.9224  156.3541  159.4474 C   0  0  0  0  0  0  0  0  0  0  0  0
  137.4491  155.1492  158.1719 N   0  0  0  0  0  0  0  0  0  0  0  0
  138.0497  154.7479  159.2287 C   0  0  0  0  0  0  0  0  0  0  0  0
  136.6473  155.8316  160.5410 C   0  0  0  0  0  0  0  0  0  0  0  0
  134.7485  157.3190  161.1495 C   0  0  0  0  0  0  0  0  0  0  0  0
  134.8948  157.1633  159.8964 C   0  0  0  0  0  0  0  0  0  0  0  0
  136.3919  155.9649  158.2149 C   0  0  0  0  0  0  0  0  0  0  0  0
  137.6515  155.0685  160.3913 N   0  0  0  0  0  0  0  0  0  0  0  0
  135.8761  156.4595  162.0276 S   0  0  0  0  0  0  0  0  0  0  0  0
  133.9780  157.8272  159.0650 N   0  0  0  0  0  0  0  0  0  0  0  0
  134.0475  157.7395  158.0869 H   0  0  0  0  0  0  0  0  0  0  0  0
  133.2659  158.3802  159.4604 H   0  0  0  0  0  0  0  0  0  0  0  0
  136.0239  155.2988  155.9451 C   0  0  0  0  0  0  0  0  0  0  0  0
  135.6204  155.3028  154.7025 C   0  0  0  0  0  0  0  0  0  0  0  0
  134.9161  156.4023  154.3284 C   0  0  0  0  0  0  0  0  0  0  0  0
  135.1168  157.4336  156.4486 C   0  0  0  0  0  0  0  0  0  0  0  0
  135.8213  156.3225  156.8259 C   0  0  0  0  0  0  0  0  0  0  0  0
  134.6914  157.4632  155.1695 C   0  0  0  0  0  0  0  0  0  0  0  0
  136.2071  154.1274  152.4684 C   0  0  0  0  0  0  0  0  0  0  0  0
  135.9386  154.1333  153.9016 N   0  0  0  0  0  0  0  0  0  0  0  0
  136.1631  155.1283  151.8898 O   0  0  0  0  0  0  0  0  0  0  0  0
  135.9762  153.2672  154.3681 H   0  0  0  0  0  0  0  0  0  0  0  0
  136.5425  152.8461  151.6854 C   0  0  0  0  0  0  0  0  0  0  0  0
  135.4870  151.8708  151.4562 N   0  0  0  0  0  0  0  0  0  0  0  0
  135.1232  151.4921  150.2039 C   0  0  0  0  0  0  0  0  0  0  0  0
  133.8311  151.5148  149.9381 C   0  0  0  0  0  0  0  0  0  0  0  0
  132.8920  151.8310  150.9963 O   0  0  0  0  0  0  0  0  0  0  0  0
  133.4561  151.5626  152.3068 C   0  0  0  0  0  0  0  0  0  0  0  0
  134.7254  151.3015  152.4136 C   0  0  0  0  0  0  0  0  0  0  0  0
  134.0292  159.1284  162.6560 N   0  0  0  0  0  0  0  0  0  0  0  0
  133.7042  158.0434  161.8265 C   0  0  0  0  0  0  0  0  0  0  0  0
  132.6712  157.6835  161.6398 O   0  0  0  0  0  0  0  0  0  0  0  0
  134.9695  159.3944  162.7758 H   0  0  0  0  0  0  0  0  0  0  0  0
  131.7894  158.9294  163.4419 C   0  0  0  0  0  0  0  0  0  0  0  0
  132.9984  159.8399  163.3208 C   0  0  0  0  0  0  0  0  0  0  0  0
  132.6568  161.0218  162.4416 C   0  0  0  0  0  0  0  0  0  0  0  0
  133.4372  160.3406  164.6747 C   0  0  0  0  0  0  0  0  0  0  0  0
  139.4147  153.6694  159.1089 S   0  0  0  0  0  0  0  0  0  0  0  0
  140.2019  153.4073  157.5214 C   0  0  0  0  0  0  0  0  0  0  0  0
 38  3  1  0
 37 35  1  0
 15 14  2  0
 35 34  1  0
  3  2  1  0
 18 16  2  0
 19 23  1  0
 26 25  1  0
 19 21  2  0
  4  1  2  0
  8  3  2  0
  9  4  1  0
  8  4  1  0
 27 26  1  0
  7  1  1  0
  6 10  1  0
  9  5  1  0
 29 24  1  0
 20 14  1  0
  6  1  1  0
 19 20  1  0
 35 30  1  0
 17 13  2  0
  6  5  2  0
 27 28  1  0
  7  2  2  0
 31 30  1  0
 17 16  1  0
 18 15  1  0
 24 23  1  0
 13 14  1  0
  5 31  1  0
 25 24  1  0
 38 39  1  0
 35 36  1  0
  7 17  1  0
 32 31  2  0
 28 29  1  0
 30 33  1  0
 20 22  1  0
 10 11  1  0
 10 12  1  0
M  END
> <minimizedAffinity>
-6.93338

> <CNNscore>
0.5923569798

> <CNNaffinity>
6.7615075111

> <CNN_VS>
4.0052261353

> <CNNaffinity_variance>
0.0242169499

$$$$
55Z_Org43553


 39 42  0  0  0  0  0  0  0  0999 V2000
  136.1179  155.9882  158.7631 C   0  0  0  0  0  0  0  0  0  0  0  0
  137.5789  154.7454  157.4478 N   0  0  0  0  0  0  0  0  0  0  0  0
  138.2734  154.4312  158.4761 C   0  0  0  0  0  0  0  0  0  0  0  0
  136.9431  155.5590  159.8258 C   0  0  0  0  0  0  0  0  0  0  0  0
  135.0497  157.0294  160.4898 C   0  0  0  0  0  0  0  0  0  0  0  0
  135.1024  156.7962  159.2413 C   0  0  0  0  0  0  0  0  0  0  0  0
  136.5020  155.5324  157.5240 C   0  0  0  0  0  0  0  0  0  0  0  0
  137.9571  154.8161  159.6444 N   0  0  0  0  0  0  0  0  0  0  0  0
  136.2704  156.2612  161.3270 S   0  0  0  0  0  0  0  0  0  0  0  0
  134.1019  157.3782  158.4460 N   0  0  0  0  0  0  0  0  0  0  0  0
  134.0974  157.2286  157.4729 H   0  0  0  0  0  0  0  0  0  0  0  0
  133.4051  157.9358  158.8615 H   0  0  0  0  0  0  0  0  0  0  0  0
  135.8316  154.6501  155.4019 C   0  0  0  0  0  0  0  0  0  0  0  0
  135.2949  154.5509  154.2149 C   0  0  0  0  0  0  0  0  0  0  0  0
  134.6468  155.6626  153.7803 C   0  0  0  0  0  0  0  0  0  0  0  0
  135.1652  156.9050  155.7263 C   0  0  0  0  0  0  0  0  0  0  0  0
  135.8128  155.7821  156.1654 C   0  0  0  0  0  0  0  0  0  0  0  0
  134.6049  156.8290  154.5023 C   0  0  0  0  0  0  0  0  0  0  0  0
  135.8473  153.0789  152.1546 C   0  0  0  0  0  0  0  0  0  0  0  0
  135.4248  153.2729  153.5366 N   0  0  0  0  0  0  0  0  0  0  0  0
  136.1017  154.0085  151.5147 O   0  0  0  0  0  0  0  0  0  0  0  0
  135.2081  152.4654  154.0565 H   0  0  0  0  0  0  0  0  0  0  0  0
  135.9660  151.6899  151.5032 C   0  0  0  0  0  0  0  0  0  0  0  0
  137.2876  151.1964  151.1457 N   0  0  0  0  0  0  0  0  0  0  0  0
  137.5704  150.7523  149.8940 C   0  0  0  0  0  0  0  0  0  0  0  0
  138.1718  149.5810  149.8108 C   0  0  0  0  0  0  0  0  0  0  0  0
  138.5802  148.9025  151.0252 O   0  0  0  0  0  0  0  0  0  0  0  0
  138.7462  149.8345  152.1259 C   0  0  0  0  0  0  0  0  0  0  0  0
  138.3279  151.0585  151.9939 C   0  0  0  0  0  0  0  0  0  0  0  0
  134.4124  158.7662  162.1141 N   0  0  0  0  0  0  0  0  0  0  0  0
  134.0383  157.7672  161.2013 C   0  0  0  0  0  0  0  0  0  0  0  0
  132.9891  157.4879  160.9717 O   0  0  0  0  0  0  0  0  0  0  0  0
  135.3646  158.9627  162.2686 H   0  0  0  0  0  0  0  0  0  0  0  0
  133.9406  159.8173  164.1991 C   0  0  0  0  0  0  0  0  0  0  0  0
  133.4139  159.4911  162.8128 C   0  0  0  0  0  0  0  0  0  0  0  0
  132.2182  158.5726  162.9281 C   0  0  0  0  0  0  0  0  0  0  0  0
  133.0059  160.7450  162.0795 C   0  0  0  0  0  0  0  0  0  0  0  0
  139.6597  153.3857  158.3154 S   0  0  0  0  0  0  0  0  0  0  0  0
  140.4931  153.2535  156.7354 C   0  0  0  0  0  0  0  0  0  0  0  0
 38  3  1  0
 37 35  1  0
 15 14  2  0
 35 34  1  0
  3  2  1  0
 18 16  2  0
 19 23  1  0
 26 25  1  0
 19 21  2  0
  4  1  2  0
  8  3  2  0
  9  4  1  0
  8  4  1  0
 27 26  1  0
  7  1  1  0
  6 10  1  0
  9  5  1  0
 29 24  1  0
 20 14  1  0
  6  1  1  0
 19 20  1  0
 35 30  1  0
 17 13  2  0
  6  5  2  0
 27 28  1  0
  7  2  2  0
 31 30  1  0
 17 16  1  0
 18 15  1  0
 24 23  1  0
 13 14  1  0
  5 31  1  0
 25 24  1  0
 38 39  1  0
 35 36  1  0
  7 17  1  0
 32 31  2  0
 28 29  1  0
 30 33  1  0
 20 22  1  0
 10 11  1  0
 10 12  1  0
M  END
> <minimizedAffinity>
-8.70637

> <CNNscore>
0.5609257221

> <CNNaffinity>
6.9612092972

> <CNN_VS>
3.9047212601

> <CNNaffinity_variance>
0.0665643960

$$$$
55Z_Org43553


 39 42  0  0  0  0  0  0  0  0999 V2000
  138.1172  151.7308  152.9414 C   0  0  0  0  0  0  0  0  0  0  0  0
  140.0421  150.5026  153.3832 N   0  0  0  0  0  0  0  0  0  0  0  0
  139.9088  149.8563  152.2864 C   0  0  0  0  0  0  0  0  0  0  0  0
  138.0848  150.9736  151.7498 C   0  0  0  0  0  0  0  0  0  0  0  0
  136.2208  152.5991  152.0161 C   0  0  0  0  0  0  0  0  0  0  0  0
  137.0410  152.5982  152.9873 C   0  0  0  0  0  0  0  0  0  0  0  0
  139.1722  151.4384  153.7735 C   0  0  0  0  0  0  0  0  0  0  0  0
  138.9594  150.0940  151.4770 N   0  0  0  0  0  0  0  0  0  0  0  0
  136.6477  151.5084  150.8290 S   0  0  0  0  0  0  0  0  0  0  0  0
  136.7855  153.5010  154.0322 N   0  0  0  0  0  0  0  0  0  0  0  0
  137.3904  153.5401  154.8080 H   0  0  0  0  0  0  0  0  0  0  0  0
  136.0014  154.0948  153.9890 H   0  0  0  0  0  0  0  0  0  0  0  0
  138.5542  152.9810  155.4968 C   0  0  0  0  0  0  0  0  0  0  0  0
  138.5642  153.6633  156.6109 C   0  0  0  0  0  0  0  0  0  0  0  0
  139.6064  153.3977  157.4405 C   0  0  0  0  0  0  0  0  0  0  0  0
  140.5775  151.8291  155.9587 C   0  0  0  0  0  0  0  0  0  0  0  0
  139.5236  152.0935  155.1264 C   0  0  0  0  0  0  0  0  0  0  0  0
  140.6121  152.5227  157.1144 C   0  0  0  0  0  0  0  0  0  0  0  0
  136.8516  154.8845  158.1251 C   0  0  0  0  0  0  0  0  0  0  0  0
  137.4576  154.5774  156.8349 N   0  0  0  0  0  0  0  0  0  0  0  0
  137.2640  154.3629  159.0719 O   0  0  0  0  0  0  0  0  0  0  0  0
  137.0833  155.0302  156.0448 H   0  0  0  0  0  0  0  0  0  0  0  0
  135.6810  155.8699  158.2862 C   0  0  0  0  0  0  0  0  0  0  0  0
  135.1084  156.0644  159.6099 N   0  0  0  0  0  0  0  0  0  0  0  0
  134.2359  157.0719  159.8704 C   0  0  0  0  0  0  0  0  0  0  0  0
  134.4943  157.8092  160.9334 C   0  0  0  0  0  0  0  0  0  0  0  0
  135.6011  157.4491  161.7979 O   0  0  0  0  0  0  0  0  0  0  0  0
  135.9396  156.0430  161.6718 C   0  0  0  0  0  0  0  0  0  0  0  0
  135.4146  155.3443  160.7091 C   0  0  0  0  0  0  0  0  0  0  0  0
  135.0394  154.7066  152.4893 N   0  0  0  0  0  0  0  0  0  0  0  0
  135.0912  153.4712  151.8242 C   0  0  0  0  0  0  0  0  0  0  0  0
  134.3059  153.0959  151.1357 O   0  0  0  0  0  0  0  0  0  0  0  0
  135.7738  154.9772  153.0865 H   0  0  0  0  0  0  0  0  0  0  0  0
  132.6600  154.7286  152.3796 C   0  0  0  0  0  0  0  0  0  0  0  0
  133.9258  155.5632  152.2978 C   0  0  0  0  0  0  0  0  0  0  0  0
  134.0628  156.1409  150.9070 C   0  0  0  0  0  0  0  0  0  0  0  0
  133.8976  156.6896  153.3011 C   0  0  0  0  0  0  0  0  0  0  0  0
  141.0874  148.6575  151.8230 S   0  0  0  0  0  0  0  0  0  0  0  0
  140.6099  147.3187  150.7330 C   0  0  0  0  0  0  0  0  0  0  0  0
 38  3  1  0
 37 35  1  0
 15 14  2  0
 35 34  1  0
  3  2  1  0
 18 16  2  0
 19 23  1  0
 26 25  1  0
 19 21  2  0
  4  1  2  0
  8  3  2  0
  9  4  1  0
  8  4  1  0
 27 26  1  0
  7  1  1  0
  6 10  1  0
  9  5  1  0
 29 24  1  0
 20 14  1  0
  6  1  1  0
 19 20  1  0
 35 30  1  0
 17 13  2  0
  6  5  2  0
 27 28  1  0
  7  2  2  0
 31 30  1  0
 17 16  1  0
 18 15  1  0
 24 23  1  0
 13 14  1  0
  5 31  1  0
 25 24  1  0
 38 39  1  0
 35 36  1  0
  7 17  1  0
 32 31  2  0
 28 29  1  0
 30 33  1  0
 20 22  1  0
 10 11  1  0
 10 12  1  0
M  END
> <minimizedAffinity>
-9.27671

> <CNNscore>
0.5535821915

> <CNNaffinity>
7.0485219955

> <CNN_VS>
3.9019362926

> <CNNaffinity_variance>
0.0848084092

$$$$
55Z_Org43553


 39 42  0  0  0  0  0  0  0  0999 V2000
  137.4424  153.0399  153.9064 C   0  0  0  0  0  0  0  0  0  0  0  0
  136.0914  154.7914  154.6248 N   0  0  0  0  0  0  0  0  0  0  0  0
  135.4390  154.7699  153.5237 C   0  0  0  0  0  0  0  0  0  0  0  0
  136.6404  153.0924  152.7452 C   0  0  0  0  0  0  0  0  0  0  0  0
  138.4299  151.3648  152.7125 C   0  0  0  0  0  0  0  0  0  0  0  0
  138.4003  152.0501  153.7827 C   0  0  0  0  0  0  0  0  0  0  0  0
  137.1120  153.9646  154.8690 C   0  0  0  0  0  0  0  0  0  0  0  0
  135.6957  153.9299  152.6064 N   0  0  0  0  0  0  0  0  0  0  0  0
  137.2382  151.8207  151.6386 S   0  0  0  0  0  0  0  0  0  0  0  0
  139.3499  151.7287  154.7663 N   0  0  0  0  0  0  0  0  0  0  0  0
  139.3695  152.2294  155.6137 H   0  0  0  0  0  0  0  0  0  0  0  0
  139.9958  151.0028  154.6084 H   0  0  0  0  0  0  0  0  0  0  0  0
  136.8172  154.5390  157.1742 C   0  0  0  0  0  0  0  0  0  0  0  0
  137.0625  154.7471  158.4405 C   0  0  0  0  0  0  0  0  0  0  0  0
  138.3428  154.5094  158.8266 C   0  0  0  0  0  0  0  0  0  0  0  0
  139.0480  153.9256  156.6446 C   0  0  0  0  0  0  0  0  0  0  0  0
  137.7562  154.1599  156.2582 C   0  0  0  0  0  0  0  0  0  0  0  0
  139.3276  154.1359  157.9467 C   0  0  0  0  0  0  0  0  0  0  0  0
  135.4887  156.5352  159.4620 C   0  0  0  0  0  0  0  0  0  0  0  0
  135.9446  155.1635  159.2695 N   0  0  0  0  0  0  0  0  0  0  0  0
  136.0532  157.3898  158.9241 O   0  0  0  0  0  0  0  0  0  0  0  0
  135.4505  154.4564  159.7439 H   0  0  0  0  0  0  0  0  0  0  0  0
  134.2903  156.9009  160.3550 C   0  0  0  0  0  0  0  0  0  0  0  0
  134.4974  157.0128  161.7911 N   0  0  0  0  0  0  0  0  0  0  0  0
  134.1712  158.1398  162.4748 C   0  0  0  0  0  0  0  0  0  0  0  0
  135.0972  158.6240  163.2802 C   0  0  0  0  0  0  0  0  0  0  0  0
  136.3340  157.8905  163.4656 O   0  0  0  0  0  0  0  0  0  0  0  0
  136.1687  156.4814  163.1577 C   0  0  0  0  0  0  0  0  0  0  0  0
  135.0788  156.0798  162.5735 C   0  0  0  0  0  0  0  0  0  0  0  0
  139.6881  150.0049  151.0912 N   0  0  0  0  0  0  0  0  0  0  0  0
  139.2815  150.2428  152.4138 C   0  0  0  0  0  0  0  0  0  0  0  0
  139.5730  149.6163  153.2822 O   0  0  0  0  0  0  0  0  0  0  0  0
  139.3917  150.6036  150.3680 H   0  0  0  0  0  0  0  0  0  0  0  0
  139.8515  147.6385  151.3098 C   0  0  0  0  0  0  0  0  0  0  0  0
  140.5271  148.8994  150.8006 C   0  0  0  0  0  0  0  0  0  0  0  0
  141.8148  149.1264  151.5602 C   0  0  0  0  0  0  0  0  0  0  0  0
  140.8339  148.7922  149.3273 C   0  0  0  0  0  0  0  0  0  0  0  0
  134.1047  155.8635  153.2703 S   0  0  0  0  0  0  0  0  0  0  0  0
  132.5943  155.2615  152.5187 C   0  0  0  0  0  0  0  0  0  0  0  0
 38  3  1  0
 37 35  1  0
 15 14  2  0
 35 34  1  0
  3  2  1  0
 18 16  2  0
 19 23  1  0
 26 25  1  0
 19 21  2  0
  4  1  2  0
  8  3  2  0
  9  4  1  0
  8  4  1  0
 27 26  1  0
  7  1  1  0
  6 10  1  0
  9  5  1  0
 29 24  1  0
 20 14  1  0
  6  1  1  0
 19 20  1  0
 35 30  1  0
 17 13  2  0
  6  5  2  0
 27 28  1  0
  7  2  2  0
 31 30  1  0
 17 16  1  0
 18 15  1  0
 24 23  1  0
 13 14  1  0
  5 31  1  0
 25 24  1  0
 38 39  1  0
 35 36  1  0
  7 17  1  0
 32 31  2  0
 28 29  1  0
 30 33  1  0
 20 22  1  0
 10 11  1  0
 10 12  1  0
M  END
> <minimizedAffinity>
-9.38280

> <CNNscore>
0.5175050497

> <CNNaffinity>
6.9596281052

> <CNN_VS>
3.6016426086

> <CNNaffinity_variance>
0.1537326872

$$$$
55Z_Org43553


 39 42  0  0  0  0  0  0  0  0999 V2000
  136.7610  154.9033  156.6761 C   0  0  0  0  0  0  0  0  0  0  0  0
  137.8842  153.9483  154.8773 N   0  0  0  0  0  0  0  0  0  0  0  0
  138.8179  153.5361  155.6499 C   0  0  0  0  0  0  0  0  0  0  0  0
  137.8326  154.3806  157.4330 C   0  0  0  0  0  0  0  0  0  0  0  0
  136.1247  155.6254  158.7450 C   0  0  0  0  0  0  0  0  0  0  0  0
  135.8745  155.5729  157.4997 C   0  0  0  0  0  0  0  0  0  0  0  0
  136.8398  154.6497  155.3269 C   0  0  0  0  0  0  0  0  0  0  0  0
  138.7891  153.7336  156.9041 N   0  0  0  0  0  0  0  0  0  0  0  0
  137.5325  154.8234  159.1398 S   0  0  0  0  0  0  0  0  0  0  0  0
  134.6950  156.1985  157.0643 N   0  0  0  0  0  0  0  0  0  0  0  0
  134.4550  156.1866  156.1096 H   0  0  0  0  0  0  0  0  0  0  0  0
  134.1080  156.6489  157.7139 H   0  0  0  0  0  0  0  0  0  0  0  0
  135.7737  154.0819  153.2601 C   0  0  0  0  0  0  0  0  0  0  0  0
  134.9850  154.1266  152.2195 C   0  0  0  0  0  0  0  0  0  0  0  0
  134.1549  155.2006  152.1707 C   0  0  0  0  0  0  0  0  0  0  0  0
  134.9999  156.1304  154.1758 C   0  0  0  0  0  0  0  0  0  0  0  0
  135.8317  155.0447  154.2267 C   0  0  0  0  0  0  0  0  0  0  0  0
  134.1776  156.2012  153.1097 C   0  0  0  0  0  0  0  0  0  0  0  0
  136.2115  152.1338  151.1052 C   0  0  0  0  0  0  0  0  0  0  0  0
  135.0679  153.0211  151.2806 N   0  0  0  0  0  0  0  0  0  0  0  0
  137.1541  152.3061  151.7535 O   0  0  0  0  0  0  0  0  0  0  0  0
  134.2814  152.8564  150.7117 H   0  0  0  0  0  0  0  0  0  0  0  0
  136.2253  150.9774  150.0903 C   0  0  0  0  0  0  0  0  0  0  0  0
  137.5031  150.5345  149.5529 N   0  0  0  0  0  0  0  0  0  0  0  0
  138.0110  151.0466  148.4023 C   0  0  0  0  0  0  0  0  0  0  0  0
  138.4290  150.1722  147.5072 C   0  0  0  0  0  0  0  0  0  0  0  0
  138.4215  148.7598  147.8341 O   0  0  0  0  0  0  0  0  0  0  0  0
  138.4546  148.5452  149.2695 C   0  0  0  0  0  0  0  0  0  0  0  0
  138.2723  149.5537  150.0697 C   0  0  0  0  0  0  0  0  0  0  0  0
  135.7934  156.2901  161.0922 N   0  0  0  0  0  0  0  0  0  0  0  0
  135.3013  156.1932  159.7809 C   0  0  0  0  0  0  0  0  0  0  0  0
  134.2935  156.5313  159.4622 O   0  0  0  0  0  0  0  0  0  0  0  0
  136.7000  155.9702  161.3045 H   0  0  0  0  0  0  0  0  0  0  0  0
  135.8778  157.5821  163.0917 C   0  0  0  0  0  0  0  0  0  0  0  0
  134.9801  156.8501  162.1098 C   0  0  0  0  0  0  0  0  0  0  0  0
  134.3058  155.6902  162.8074 C   0  0  0  0  0  0  0  0  0  0  0  0
  133.9252  157.7718  161.5495 C   0  0  0  0  0  0  0  0  0  0  0  0
  140.1477  152.6098  155.0061 S   0  0  0  0  0  0  0  0  0  0  0  0
  139.8195  151.2167  153.9291 C   0  0  0  0  0  0  0  0  0  0  0  0
 38  3  1  0
 37 35  1  0
 15 14  2  0
 35 34  1  0
  3  2  1  0
 18 16  2  0
 19 23  1  0
 26 25  1  0
 19 21  2  0
  4  1  2  0
  8  3  2  0
  9  4  1  0
  8  4  1  0
 27 26  1  0
  7  1  1  0
  6 10  1  0
  9  5  1  0
 29 24  1  0
 20 14  1  0
  6  1  1  0
 19 20  1  0
 35 30  1  0
 17 13  2  0
  6  5  2  0
 27 28  1  0
  7  2  2  0
 31 30  1  0
 17 16  1  0
 18 15  1  0
 24 23  1  0
 13 14  1  0
  5 31  1  0
 25 24  1  0
 38 39  1  0
 35 36  1  0
  7 17  1  0
 32 31  2  0
 28 29  1  0
 30 33  1  0
 20 22  1  0
 10 11  1  0
 10 12  1  0
M  END
> <minimizedAffinity>
-9.45365

> <CNNscore>
0.4232198894

> <CNNaffinity>
7.0051832199

> <CNN_VS>
2.9647328854

> <CNNaffinity_variance>
0.0895734280

$$$$
