55Z_Org43553


 39 42  0  0  0  0  0  0  0  0999 V2000
  138.2277  152.1620  153.6870 C   0  0  0  0  0  0  0  0  0  0  0  0
  138.2932  153.7127  155.4191 N   0  0  0  0  0  0  0  0  0  0  0  0
  139.3329  153.1520  155.9121 C   0  0  0  0  0  0  0  0  0  0  0  0
  139.3859  151.6422  154.3056 C   0  0  0  0  0  0  0  0  0  0  0  0
  138.6432  150.4245  152.2676 C   0  0  0  0  0  0  0  0  0  0  0  0
  137.9045  151.4140  152.5696 C   0  0  0  0  0  0  0  0  0  0  0  0
  137.6862  153.2560  154.3201 C   0  0  0  0  0  0  0  0  0  0  0  0
  139.8793  152.1463  155.3617 N   0  0  0  0  0  0  0  0  0  0  0  0
  139.9154  150.2397  153.3299 S   0  0  0  0  0  0  0  0  0  0  0  0
  136.8152  151.6725  151.7217 N   0  0  0  0  0  0  0  0  0  0  0  0
  136.2122  152.4273  151.9112 H   0  0  0  0  0  0  0  0  0  0  0  0
  136.6546  151.0989  150.9379 H   0  0  0  0  0  0  0  0  0  0  0  0
  136.0207  154.8630  154.9322 C   0  0  0  0  0  0  0  0  0  0  0  0
  135.0141  155.6927  154.8609 C   0  0  0  0  0  0  0  0  0  0  0  0
  134.4237  155.7796  153.6407 C   0  0  0  0  0  0  0  0  0  0  0  0
  135.8543  154.1640  152.6701 C   0  0  0  0  0  0  0  0  0  0  0  0
  136.4520  154.0819  153.8986 C   0  0  0  0  0  0  0  0  0  0  0  0
  134.8106  155.0118  152.5711 C   0  0  0  0  0  0  0  0  0  0  0  0
  134.0191  155.8911  157.2458 C   0  0  0  0  0  0  0  0  0  0  0  0
  134.6825  156.4333  156.0659 N   0  0  0  0  0  0  0  0  0  0  0  0
  133.7114  154.7759  157.2481 O   0  0  0  0  0  0  0  0  0  0  0  0
  134.9276  157.3865  156.0879 H   0  0  0  0  0  0  0  0  0  0  0  0
  133.7031  156.7379  158.4911 C   0  0  0  0  0  0  0  0  0  0  0  0
  134.7374  156.9091  159.5005 N   0  0  0  0  0  0  0  0  0  0  0  0
  135.9345  156.2742  159.4123 C   0  0  0  0  0  0  0  0  0  0  0  0
  136.3401  155.6375  160.4943 C   0  0  0  0  0  0  0  0  0  0  0  0
  135.5605  155.7360  161.7126 O   0  0  0  0  0  0  0  0  0  0  0  0
  134.7385  156.9327  161.7236 C   0  0  0  0  0  0  0  0  0  0  0  0
  134.6137  157.6308  160.6338 C   0  0  0  0  0  0  0  0  0  0  0  0
  139.3682  148.4473  150.9923 N   0  0  0  0  0  0  0  0  0  0  0  0
  138.5371  149.5726  151.1115 C   0  0  0  0  0  0  0  0  0  0  0  0
  137.7752  149.8721  150.3623 O   0  0  0  0  0  0  0  0  0  0  0  0
  140.0232  148.2401  151.6975 H   0  0  0  0  0  0  0  0  0  0  0  0
  140.5522  146.8237  149.7130 C   0  0  0  0  0  0  0  0  0  0  0  0
  139.2609  147.6103  149.8528 C   0  0  0  0  0  0  0  0  0  0  0  0
  139.0942  148.5265  148.6614 C   0  0  0  0  0  0  0  0  0  0  0  0
  138.0708  146.6869  149.9376 C   0  0  0  0  0  0  0  0  0  0  0  0
  140.0911  153.8052  157.3401 S   0  0  0  0  0  0  0  0  0  0  0  0
  139.1567  153.9285  158.8634 C   0  0  0  0  0  0  0  0  0  0  0  0
 38  3  1  0
 37 35  1  0
 15 14  2  0
 35 34  1  0
  3  2  1  0
 18 16  2  0
 19 23  1  0
 26 25  1  0
 19 21  2  0
  4  1  2  0
  8  3  2  0
  9  4  1  0
  8  4  1  0
 27 26  1  0
  7  1  1  0
  6 10  1  0
  9  5  1  0
 29 24  1  0
 20 14  1  0
  6  1  1  0
 19 20  1  0
 35 30  1  0
 17 13  2  0
  6  5  2  0
 27 28  1  0
  7  2  2  0
 31 30  1  0
 17 16  1  0
 18 15  1  0
 24 23  1  0
 13 14  1  0
  5 31  1  0
 25 24  1  0
 38 39  1  0
 35 36  1  0
  7 17  1  0
 32 31  2  0
 28 29  1  0
 30 33  1  0
 20 22  1  0
 10 11  1  0
 10 12  1  0
M  END
> <minimizedAffinity>
-8.61658

$$$$
55Z_Org43553


 39 42  0  0  0  0  0  0  0  0999 V2000
  135.7037  156.1597  158.9841 C   0  0  0  0  0  0  0  0  0  0  0  0
  135.7801  156.9628  161.1655 N   0  0  0  0  0  0  0  0  0  0  0  0
  134.6024  157.4512  161.0510 C   0  0  0  0  0  0  0  0  0  0  0  0
  134.4062  156.7173  158.9807 C   0  0  0  0  0  0  0  0  0  0  0  0
  135.0887  155.6239  156.8532 C   0  0  0  0  0  0  0  0  0  0  0  0
  135.9796  155.5807  157.7589 C   0  0  0  0  0  0  0  0  0  0  0  0
  136.3901  156.3219  160.1646 C   0  0  0  0  0  0  0  0  0  0  0  0
  133.9208  157.3208  159.9874 N   0  0  0  0  0  0  0  0  0  0  0  0
  133.7034  156.3970  157.3675 S   0  0  0  0  0  0  0  0  0  0  0  0
  137.1800  154.9276  157.4352 N   0  0  0  0  0  0  0  0  0  0  0  0
  137.9022  154.8663  158.1014 H   0  0  0  0  0  0  0  0  0  0  0  0
  137.2992  154.5310  156.5420 H   0  0  0  0  0  0  0  0  0  0  0  0
  138.1730  154.7993  159.6805 C   0  0  0  0  0  0  0  0  0  0  0  0
  139.3297  154.1932  159.7194 C   0  0  0  0  0  0  0  0  0  0  0  0
  140.2027  154.6755  160.6414 C   0  0  0  0  0  0  0  0  0  0  0  0
  138.6806  156.2961  161.4512 C   0  0  0  0  0  0  0  0  0  0  0  0
  137.8041  155.8130  160.5177 C   0  0  0  0  0  0  0  0  0  0  0  0
  139.8810  155.6853  161.5133 C   0  0  0  0  0  0  0  0  0  0  0  0
  139.8561  153.2913  157.3474 C   0  0  0  0  0  0  0  0  0  0  0  0
  139.5461  153.1222  158.7621 N   0  0  0  0  0  0  0  0  0  0  0  0
  139.9362  154.3632  156.9195 O   0  0  0  0  0  0  0  0  0  0  0  0
  139.4774  152.1996  159.0987 H   0  0  0  0  0  0  0  0  0  0  0  0
  140.0772  152.1057  156.3919 C   0  0  0  0  0  0  0  0  0  0  0  0
  139.3122  152.0529  155.1550 N   0  0  0  0  0  0  0  0  0  0  0  0
  138.0324  151.5999  155.1248 C   0  0  0  0  0  0  0  0  0  0  0  0
  137.7525  150.6991  154.2024 C   0  0  0  0  0  0  0  0  0  0  0  0
  138.7674  150.3321  153.2343 O   0  0  0  0  0  0  0  0  0  0  0  0
  139.7643  151.3771  153.0858 C   0  0  0  0  0  0  0  0  0  0  0  0
  139.7822  152.3661  153.9296 C   0  0  0  0  0  0  0  0  0  0  0  0
  134.2208  155.4117  154.5591 N   0  0  0  0  0  0  0  0  0  0  0  0
  135.1359  155.0172  155.5481 C   0  0  0  0  0  0  0  0  0  0  0  0
  135.9237  154.2490  155.4037 O   0  0  0  0  0  0  0  0  0  0  0  0
  133.5471  156.1018  154.7565 H   0  0  0  0  0  0  0  0  0  0  0  0
  135.5122  155.3144  152.5598 C   0  0  0  0  0  0  0  0  0  0  0  0
  134.2703  154.8125  153.2748 C   0  0  0  0  0  0  0  0  0  0  0  0
  133.0365  155.2792  152.5356 C   0  0  0  0  0  0  0  0  0  0  0  0
  134.2612  153.3057  153.3514 C   0  0  0  0  0  0  0  0  0  0  0  0
  133.8518  158.2629  162.3996 S   0  0  0  0  0  0  0  0  0  0  0  0
  132.0759  158.1708  162.6140 C   0  0  0  0  0  0  0  0  0  0  0  0
 38  3  1  0
 37 35  1  0
 15 14  2  0
 35 34  1  0
  3  2  1  0
 18 16  2  0
 19 23  1  0
 26 25  1  0
 19 21  2  0
  4  1  2  0
  8  3  2  0
  9  4  1  0
  8  4  1  0
 27 26  1  0
  7  1  1  0
  6 10  1  0
  9  5  1  0
 29 24  1  0
 20 14  1  0
  6  1  1  0
 19 20  1  0
 35 30  1  0
 17 13  2  0
  6  5  2  0
 27 28  1  0
  7  2  2  0
 31 30  1  0
 17 16  1  0
 18 15  1  0
 24 23  1  0
 13 14  1  0
  5 31  1  0
 25 24  1  0
 38 39  1  0
 35 36  1  0
  7 17  1  0
 32 31  2  0
 28 29  1  0
 30 33  1  0
 20 22  1  0
 10 11  1  0
 10 12  1  0
M  END
> <minimizedAffinity>
-8.43808

$$$$
55Z_Org43553


 39 42  0  0  0  0  0  0  0  0999 V2000
  138.2717  151.9941  153.5966 C   0  0  0  0  0  0  0  0  0  0  0  0
  138.3773  153.4692  155.3917 N   0  0  0  0  0  0  0  0  0  0  0  0
  139.4401  152.9021  155.8244 C   0  0  0  0  0  0  0  0  0  0  0  0
  139.4567  151.4640  154.1526 C   0  0  0  0  0  0  0  0  0  0  0  0
  138.6598  150.3255  152.0895 C   0  0  0  0  0  0  0  0  0  0  0  0
  137.9197  151.2907  152.4591 C   0  0  0  0  0  0  0  0  0  0  0  0
  137.7387  153.0521  154.2948 C   0  0  0  0  0  0  0  0  0  0  0  0
  139.9798  151.9288  155.2126 N   0  0  0  0  0  0  0  0  0  0  0  0
  139.9697  150.1126  153.0993 S   0  0  0  0  0  0  0  0  0  0  0  0
  136.7989  151.5706  151.6605 N   0  0  0  0  0  0  0  0  0  0  0  0
  136.1935  152.3081  151.9030 H   0  0  0  0  0  0  0  0  0  0  0  0
  136.6186  151.0293  150.8582 H   0  0  0  0  0  0  0  0  0  0  0  0
  135.8443  154.2804  155.0909 C   0  0  0  0  0  0  0  0  0  0  0  0
  134.7682  155.0209  155.1136 C   0  0  0  0  0  0  0  0  0  0  0  0
  134.3233  155.4292  153.8970 C   0  0  0  0  0  0  0  0  0  0  0  0
  136.0302  154.2842  152.7246 C   0  0  0  0  0  0  0  0  0  0  0  0
  136.4807  153.8783  153.9516 C   0  0  0  0  0  0  0  0  0  0  0  0
  134.9188  155.0475  152.7209 C   0  0  0  0  0  0  0  0  0  0  0  0
  134.5740  156.4883  157.2411 C   0  0  0  0  0  0  0  0  0  0  0  0
  134.2140  155.3397  156.4181 N   0  0  0  0  0  0  0  0  0  0  0  0
  135.3751  157.2249  156.8486 O   0  0  0  0  0  0  0  0  0  0  0  0
  133.5345  154.7254  156.7787 H   0  0  0  0  0  0  0  0  0  0  0  0
  133.9393  156.7645  158.6153 C   0  0  0  0  0  0  0  0  0  0  0  0
  134.8136  157.0286  159.7483 N   0  0  0  0  0  0  0  0  0  0  0  0
  136.0875  156.5605  159.7927 C   0  0  0  0  0  0  0  0  0  0  0  0
  136.4440  155.9389  160.9004 C   0  0  0  0  0  0  0  0  0  0  0  0
  135.5191  155.8842  162.0155 O   0  0  0  0  0  0  0  0  0  0  0  0
  134.5473  156.9612  161.9546 C   0  0  0  0  0  0  0  0  0  0  0  0
  134.4596  157.6808  160.8753 C   0  0  0  0  0  0  0  0  0  0  0  0
  139.2459  148.3245  150.7804 N   0  0  0  0  0  0  0  0  0  0  0  0
  138.5247  149.5230  150.9015 C   0  0  0  0  0  0  0  0  0  0  0  0
  137.8317  149.9190  150.1305 O   0  0  0  0  0  0  0  0  0  0  0  0
  139.8438  148.0323  151.5060 H   0  0  0  0  0  0  0  0  0  0  0  0
  137.9738  146.5526  149.8233 C   0  0  0  0  0  0  0  0  0  0  0  0
  139.1103  147.5365  149.6094 C   0  0  0  0  0  0  0  0  0  0  0  0
  140.4104  146.7814  149.4473 C   0  0  0  0  0  0  0  0  0  0  0  0
  138.8719  148.3810  148.3821 C   0  0  0  0  0  0  0  0  0  0  0  0
  140.2386  153.5034  157.2533 S   0  0  0  0  0  0  0  0  0  0  0  0
  139.2650  154.1842  158.5938 C   0  0  0  0  0  0  0  0  0  0  0  0
 38  3  1  0
 37 35  1  0
 15 14  2  0
 35 34  1  0
  3  2  1  0
 18 16  2  0
 19 23  1  0
 26 25  1  0
 19 21  2  0
  4  1  2  0
  8  3  2  0
  9  4  1  0
  8  4  1  0
 27 26  1  0
  7  1  1  0
  6 10  1  0
  9  5  1  0
 29 24  1  0
 20 14  1  0
  6  1  1  0
 19 20  1  0
 35 30  1  0
 17 13  2  0
  6  5  2  0
 27 28  1  0
  7  2  2  0
 31 30  1  0
 17 16  1  0
 18 15  1  0
 24 23  1  0
 13 14  1  0
  5 31  1  0
 25 24  1  0
 38 39  1  0
 35 36  1  0
  7 17  1  0
 32 31  2  0
 28 29  1  0
 30 33  1  0
 20 22  1  0
 10 11  1  0
 10 12  1  0
M  END
> <minimizedAffinity>
-8.41895

$$$$
55Z_Org43553


 39 42  0  0  0  0  0  0  0  0999 V2000
  138.2143  155.5500  160.6502 C   0  0  0  0  0  0  0  0  0  0  0  0
  137.9840  154.7593  158.4751 N   0  0  0  0  0  0  0  0  0  0  0  0
  139.1271  154.1867  158.5380 C   0  0  0  0  0  0  0  0  0  0  0  0
  139.4462  154.8604  160.6135 C   0  0  0  0  0  0  0  0  0  0  0  0
  138.9631  156.0414  162.7488 C   0  0  0  0  0  0  0  0  0  0  0  0
  138.0474  156.1678  161.8762 C   0  0  0  0  0  0  0  0  0  0  0  0
  137.4810  155.4679  159.4899 C   0  0  0  0  0  0  0  0  0  0  0  0
  139.8399  154.2220  159.5885 N   0  0  0  0  0  0  0  0  0  0  0  0
  140.2268  155.0989  162.2050 S   0  0  0  0  0  0  0  0  0  0  0  0
  136.9233  156.9251  162.2436 N   0  0  0  0  0  0  0  0  0  0  0  0
  136.1858  157.0535  161.6042 H   0  0  0  0  0  0  0  0  0  0  0  0
  136.8727  157.3277  163.1406 H   0  0  0  0  0  0  0  0  0  0  0  0
  135.7216  155.8347  157.9084 C   0  0  0  0  0  0  0  0  0  0  0  0
  134.5808  156.1997  157.3866 C   0  0  0  0  0  0  0  0  0  0  0  0
  133.7223  156.8084  158.2452 C   0  0  0  0  0  0  0  0  0  0  0  0
  135.2278  156.6896  160.0669 C   0  0  0  0  0  0  0  0  0  0  0  0
  136.0895  156.0711  159.2020 C   0  0  0  0  0  0  0  0  0  0  0  0
  134.0441  157.0786  159.5517 C   0  0  0  0  0  0  0  0  0  0  0  0
  135.0772  156.4636  154.8565 C   0  0  0  0  0  0  0  0  0  0  0  0
  134.3634  155.8801  155.9862 N   0  0  0  0  0  0  0  0  0  0  0  0
  135.8903  157.2601  155.0634 O   0  0  0  0  0  0  0  0  0  0  0  0
  133.6721  155.2096  155.7816 H   0  0  0  0  0  0  0  0  0  0  0  0
  134.7946  156.0715  153.3957 C   0  0  0  0  0  0  0  0  0  0  0  0
  134.3044  154.7304  153.1145 N   0  0  0  0  0  0  0  0  0  0  0  0
  135.1000  153.6372  153.2408 C   0  0  0  0  0  0  0  0  0  0  0  0
  135.1116  152.8011  152.2204 C   0  0  0  0  0  0  0  0  0  0  0  0
  134.2217  153.0332  151.0996 O   0  0  0  0  0  0  0  0  0  0  0  0
  133.0798  153.8426  151.4850 C   0  0  0  0  0  0  0  0  0  0  0  0
  133.0757  154.4281  152.6460 C   0  0  0  0  0  0  0  0  0  0  0  0
  137.9618  156.0921  164.9974 N   0  0  0  0  0  0  0  0  0  0  0  0
  138.9544  156.5267  164.1045 C   0  0  0  0  0  0  0  0  0  0  0  0
  139.7647  157.2387  164.3651 O   0  0  0  0  0  0  0  0  0  0  0  0
  137.2720  155.4567  164.6980 H   0  0  0  0  0  0  0  0  0  0  0  0
  139.1975  156.0493  167.0334 C   0  0  0  0  0  0  0  0  0  0  0  0
  137.9564  156.5717  166.3318 C   0  0  0  0  0  0  0  0  0  0  0  0
  136.7224  155.9962  166.9896 C   0  0  0  0  0  0  0  0  0  0  0  0
  137.8931  158.0778  166.3928 C   0  0  0  0  0  0  0  0  0  0  0  0
  139.7228  153.2608  157.1857 S   0  0  0  0  0  0  0  0  0  0  0  0
  139.0569  153.5523  155.5486 C   0  0  0  0  0  0  0  0  0  0  0  0
 38  3  1  0
 37 35  1  0
 15 14  2  0
 35 34  1  0
  3  2  1  0
 18 16  2  0
 19 23  1  0
 26 25  1  0
 19 21  2  0
  4  1  2  0
  8  3  2  0
  9  4  1  0
  8  4  1  0
 27 26  1  0
  7  1  1  0
  6 10  1  0
  9  5  1  0
 29 24  1  0
 20 14  1  0
  6  1  1  0
 19 20  1  0
 35 30  1  0
 17 13  2  0
  6  5  2  0
 27 28  1  0
  7  2  2  0
 31 30  1  0
 17 16  1  0
 18 15  1  0
 24 23  1  0
 13 14  1  0
  5 31  1  0
 25 24  1  0
 38 39  1  0
 35 36  1  0
  7 17  1  0
 32 31  2  0
 28 29  1  0
 30 33  1  0
 20 22  1  0
 10 11  1  0
 10 12  1  0
M  END
> <minimizedAffinity>
-8.39315

$$$$
55Z_Org43553


 39 42  0  0  0  0  0  0  0  0999 V2000
  136.0025  155.1736  156.6652 C   0  0  0  0  0  0  0  0  0  0  0  0
  136.0848  155.0581  154.3438 N   0  0  0  0  0  0  0  0  0  0  0  0
  134.9734  155.6862  154.2505 C   0  0  0  0  0  0  0  0  0  0  0  0
  134.7990  155.8775  156.4405 C   0  0  0  0  0  0  0  0  0  0  0  0
  135.4090  155.5704  158.8324 C   0  0  0  0  0  0  0  0  0  0  0  0
  136.2450  155.0602  158.0220 C   0  0  0  0  0  0  0  0  0  0  0  0
  136.6414  154.7581  155.5207 C   0  0  0  0  0  0  0  0  0  0  0  0
  134.3477  156.1016  155.2746 N   0  0  0  0  0  0  0  0  0  0  0  0
  134.1422  156.3163  158.0452 S   0  0  0  0  0  0  0  0  0  0  0  0
  137.3656  154.4271  158.5839 N   0  0  0  0  0  0  0  0  0  0  0  0
  138.0431  154.0159  157.9998 H   0  0  0  0  0  0  0  0  0  0  0  0
  137.4737  154.3945  159.5620 H   0  0  0  0  0  0  0  0  0  0  0  0
  137.8412  152.8981  154.6086 C   0  0  0  0  0  0  0  0  0  0  0  0
  138.8132  152.0807  154.3020 C   0  0  0  0  0  0  0  0  0  0  0  0
  140.0319  152.4234  154.7942 C   0  0  0  0  0  0  0  0  0  0  0  0
  139.2070  154.3429  155.9051 C   0  0  0  0  0  0  0  0  0  0  0  0
  137.9807  153.9996  155.4036 C   0  0  0  0  0  0  0  0  0  0  0  0
  140.2267  153.5134  155.6050 C   0  0  0  0  0  0  0  0  0  0  0  0
  139.3657  150.3202  152.4819 C   0  0  0  0  0  0  0  0  0  0  0  0
  138.4804  150.9475  153.4561 N   0  0  0  0  0  0  0  0  0  0  0  0
  140.4323  150.7464  152.3439 O   0  0  0  0  0  0  0  0  0  0  0  0
  137.5763  150.5692  153.5488 H   0  0  0  0  0  0  0  0  0  0  0  0
  138.9439  149.1162  151.6217 C   0  0  0  0  0  0  0  0  0  0  0  0
  139.3187  149.0965  150.2157 N   0  0  0  0  0  0  0  0  0  0  0  0
  138.8624  150.0296  149.3410 C   0  0  0  0  0  0  0  0  0  0  0  0
  138.3508  149.5738  148.2135 C   0  0  0  0  0  0  0  0  0  0  0  0
  138.3991  148.1522  147.9332 O   0  0  0  0  0  0  0  0  0  0  0  0
  139.4612  147.4986  148.6764 C   0  0  0  0  0  0  0  0  0  0  0  0
  140.0741  148.1504  149.6198 C   0  0  0  0  0  0  0  0  0  0  0  0
  135.4215  156.8809  160.9166 N   0  0  0  0  0  0  0  0  0  0  0  0
  135.5097  155.6392  160.2672 C   0  0  0  0  0  0  0  0  0  0  0  0
  135.6545  154.6688  160.7857 O   0  0  0  0  0  0  0  0  0  0  0  0
  135.2914  157.7042  160.3927 H   0  0  0  0  0  0  0  0  0  0  0  0
  136.9700  156.7144  162.7190 C   0  0  0  0  0  0  0  0  0  0  0  0
  135.5206  156.9450  162.3297 C   0  0  0  0  0  0  0  0  0  0  0  0
  134.6655  155.8216  162.8713 C   0  0  0  0  0  0  0  0  0  0  0  0
  135.0157  158.2582  162.8744 C   0  0  0  0  0  0  0  0  0  0  0  0
  134.3053  156.0641  152.6847 S   0  0  0  0  0  0  0  0  0  0  0  0
  133.3367  154.8350  151.8132 C   0  0  0  0  0  0  0  0  0  0  0  0
 38  3  1  0
 37 35  1  0
 15 14  2  0
 35 34  1  0
  3  2  1  0
 18 16  2  0
 19 23  1  0
 26 25  1  0
 19 21  2  0
  4  1  2  0
  8  3  2  0
  9  4  1  0
  8  4  1  0
 27 26  1  0
  7  1  1  0
  6 10  1  0
  9  5  1  0
 29 24  1  0
 20 14  1  0
  6  1  1  0
 19 20  1  0
 35 30  1  0
 17 13  2  0
  6  5  2  0
 27 28  1  0
  7  2  2  0
 31 30  1  0
 17 16  1  0
 18 15  1  0
 24 23  1  0
 13 14  1  0
  5 31  1  0
 25 24  1  0
 38 39  1  0
 35 36  1  0
  7 17  1  0
 32 31  2  0
 28 29  1  0
 30 33  1  0
 20 22  1  0
 10 11  1  0
 10 12  1  0
M  END
> <minimizedAffinity>
-8.26029

$$$$
55Z_Org43553


 39 42  0  0  0  0  0  0  0  0999 V2000
  138.3424  154.6280  158.5518 C   0  0  0  0  0  0  0  0  0  0  0  0
  138.0798  155.5999  160.6484 N   0  0  0  0  0  0  0  0  0  0  0  0
  139.2182  155.1512  161.0241 C   0  0  0  0  0  0  0  0  0  0  0  0
  139.5883  154.2065  159.0661 C   0  0  0  0  0  0  0  0  0  0  0  0
  139.1165  153.4924  156.7304 C   0  0  0  0  0  0  0  0  0  0  0  0
  138.1831  154.1788  157.2536 C   0  0  0  0  0  0  0  0  0  0  0  0
  137.5805  155.3589  159.4328 C   0  0  0  0  0  0  0  0  0  0  0  0
  139.9662  154.4804  160.2473 N   0  0  0  0  0  0  0  0  0  0  0  0
  140.4034  153.2820  157.7699 S   0  0  0  0  0  0  0  0  0  0  0  0
  137.0598  154.4353  156.4507 N   0  0  0  0  0  0  0  0  0  0  0  0
  136.3091  154.9623  156.8084 H   0  0  0  0  0  0  0  0  0  0  0  0
  137.0231  154.0882  155.5301 H   0  0  0  0  0  0  0  0  0  0  0  0
  135.7817  155.7680  157.9072 C   0  0  0  0  0  0  0  0  0  0  0  0
  134.6341  156.1601  157.4212 C   0  0  0  0  0  0  0  0  0  0  0  0
  133.8174  156.7885  158.3061 C   0  0  0  0  0  0  0  0  0  0  0  0
  135.3759  156.6332  160.0798 C   0  0  0  0  0  0  0  0  0  0  0  0
  136.1954  155.9949  159.1886 C   0  0  0  0  0  0  0  0  0  0  0  0
  134.1862  157.0504  159.6019 C   0  0  0  0  0  0  0  0  0  0  0  0
  135.1619  156.2802  154.8866 C   0  0  0  0  0  0  0  0  0  0  0  0
  134.3654  155.8465  156.0284 N   0  0  0  0  0  0  0  0  0  0  0  0
  136.0931  156.9400  155.0761 O   0  0  0  0  0  0  0  0  0  0  0  0
  133.5748  155.2915  155.8384 H   0  0  0  0  0  0  0  0  0  0  0  0
  134.8172  155.9042  153.4350 C   0  0  0  0  0  0  0  0  0  0  0  0
  133.9012  154.7984  153.1983 N   0  0  0  0  0  0  0  0  0  0  0  0
  134.1568  153.5470  153.6598 C   0  0  0  0  0  0  0  0  0  0  0  0
  134.0362  152.5655  152.7865 C   0  0  0  0  0  0  0  0  0  0  0  0
  133.5500  152.8557  151.4519 O   0  0  0  0  0  0  0  0  0  0  0  0
  132.7709  154.0805  151.4235 C   0  0  0  0  0  0  0  0  0  0  0  0
  132.7714  154.8609  152.4634 C   0  0  0  0  0  0  0  0  0  0  0  0
  138.5790  151.7850  155.0402 N   0  0  0  0  0  0  0  0  0  0  0  0
  139.1915  153.0022  155.3785 C   0  0  0  0  0  0  0  0  0  0  0  0
  139.7486  153.6440  154.6649 O   0  0  0  0  0  0  0  0  0  0  0  0
  138.0989  151.2663  155.7256 H   0  0  0  0  0  0  0  0  0  0  0  0
  137.6934  152.1125  152.8533 C   0  0  0  0  0  0  0  0  0  0  0  0
  138.6543  151.3053  153.7080 C   0  0  0  0  0  0  0  0  0  0  0  0
  138.2080  149.8610  153.7460 C   0  0  0  0  0  0  0  0  0  0  0  0
  140.0577  151.3754  153.1586 C   0  0  0  0  0  0  0  0  0  0  0  0
  139.8241  155.5139  162.6185 S   0  0  0  0  0  0  0  0  0  0  0  0
  140.8645  154.3259  163.4639 C   0  0  0  0  0  0  0  0  0  0  0  0
 38  3  1  0
 37 35  1  0
 15 14  2  0
 35 34  1  0
  3  2  1  0
 18 16  2  0
 19 23  1  0
 26 25  1  0
 19 21  2  0
  4  1  2  0
  8  3  2  0
  9  4  1  0
  8  4  1  0
 27 26  1  0
  7  1  1  0
  6 10  1  0
  9  5  1  0
 29 24  1  0
 20 14  1  0
  6  1  1  0
 19 20  1  0
 35 30  1  0
 17 13  2  0
  6  5  2  0
 27 28  1  0
  7  2  2  0
 31 30  1  0
 17 16  1  0
 18 15  1  0
 24 23  1  0
 13 14  1  0
  5 31  1  0
 25 24  1  0
 38 39  1  0
 35 36  1  0
  7 17  1  0
 32 31  2  0
 28 29  1  0
 30 33  1  0
 20 22  1  0
 10 11  1  0
 10 12  1  0
M  END
> <minimizedAffinity>
-8.21035

$$$$
55Z_Org43553


 39 42  0  0  0  0  0  0  0  0999 V2000
  136.0293  155.2526  156.7651 C   0  0  0  0  0  0  0  0  0  0  0  0
  136.0734  155.1615  154.4416 N   0  0  0  0  0  0  0  0  0  0  0  0
  134.9725  155.8109  154.3725 C   0  0  0  0  0  0  0  0  0  0  0  0
  134.8356  155.9808  156.5670 C   0  0  0  0  0  0  0  0  0  0  0  0
  135.4769  155.6360  158.9456 C   0  0  0  0  0  0  0  0  0  0  0  0
  136.2907  155.1197  158.1166 C   0  0  0  0  0  0  0  0  0  0  0  0
  136.6426  154.8383  155.6062 C   0  0  0  0  0  0  0  0  0  0  0  0
  134.3705  156.2261  155.4109 N   0  0  0  0  0  0  0  0  0  0  0  0
  134.2119  156.4136  158.1865 S   0  0  0  0  0  0  0  0  0  0  0  0
  137.4080  154.4600  158.6539 N   0  0  0  0  0  0  0  0  0  0  0  0
  138.0686  154.0430  158.0548 H   0  0  0  0  0  0  0  0  0  0  0  0
  137.5306  154.4145  159.6297 H   0  0  0  0  0  0  0  0  0  0  0  0
  137.7922  152.9637  154.6601 C   0  0  0  0  0  0  0  0  0  0  0  0
  138.7437  152.1313  154.3304 C   0  0  0  0  0  0  0  0  0  0  0  0
  139.9769  152.4486  154.8029 C   0  0  0  0  0  0  0  0  0  0  0  0
  139.2067  154.3745  155.9415 C   0  0  0  0  0  0  0  0  0  0  0  0
  137.9657  154.0568  155.4599 C   0  0  0  0  0  0  0  0  0  0  0  0
  140.2058  153.5291  155.6174 C   0  0  0  0  0  0  0  0  0  0  0  0
  139.2328  150.3721  152.4910 C   0  0  0  0  0  0  0  0  0  0  0  0
  138.3755  151.0102  153.4830 N   0  0  0  0  0  0  0  0  0  0  0  0
  140.3053  150.7783  152.3386 O   0  0  0  0  0  0  0  0  0  0  0  0
  137.4656  150.6490  153.5878 H   0  0  0  0  0  0  0  0  0  0  0  0
  138.7740  149.1821  151.6303 C   0  0  0  0  0  0  0  0  0  0  0  0
  139.2213  149.1063  150.2475 N   0  0  0  0  0  0  0  0  0  0  0  0
  138.8988  150.0621  149.3384 C   0  0  0  0  0  0  0  0  0  0  0  0
  138.4104  149.6356  148.1895 C   0  0  0  0  0  0  0  0  0  0  0  0
  138.3458  148.2110  147.9282 O   0  0  0  0  0  0  0  0  0  0  0  0
  139.3029  147.4774  148.7366 C   0  0  0  0  0  0  0  0  0  0  0  0
  139.9198  148.0872  149.7052 C   0  0  0  0  0  0  0  0  0  0  0  0
  135.3648  156.8918  161.0602 N   0  0  0  0  0  0  0  0  0  0  0  0
  135.6010  155.6869  160.3793 C   0  0  0  0  0  0  0  0  0  0  0  0
  135.8849  154.7334  160.8711 O   0  0  0  0  0  0  0  0  0  0  0  0
  135.1149  157.7015  160.5591 H   0  0  0  0  0  0  0  0  0  0  0  0
  134.6506  155.8175  163.0627 C   0  0  0  0  0  0  0  0  0  0  0  0
  135.4875  156.9383  162.4721 C   0  0  0  0  0  0  0  0  0  0  0  0
  134.9266  158.2733  162.9078 C   0  0  0  0  0  0  0  0  0  0  0  0
  136.9245  156.8351  162.9200 C   0  0  0  0  0  0  0  0  0  0  0  0
  134.2872  156.2182  152.8217 S   0  0  0  0  0  0  0  0  0  0  0  0
  134.8850  155.3998  151.3448 C   0  0  0  0  0  0  0  0  0  0  0  0
 38  3  1  0
 37 35  1  0
 15 14  2  0
 35 34  1  0
  3  2  1  0
 18 16  2  0
 19 23  1  0
 26 25  1  0
 19 21  2  0
  4  1  2  0
  8  3  2  0
  9  4  1  0
  8  4  1  0
 27 26  1  0
  7  1  1  0
  6 10  1  0
  9  5  1  0
 29 24  1  0
 20 14  1  0
  6  1  1  0
 19 20  1  0
 35 30  1  0
 17 13  2  0
  6  5  2  0
 27 28  1  0
  7  2  2  0
 31 30  1  0
 17 16  1  0
 18 15  1  0
 24 23  1  0
 13 14  1  0
  5 31  1  0
 25 24  1  0
 38 39  1  0
 35 36  1  0
  7 17  1  0
 32 31  2  0
 28 29  1  0
 30 33  1  0
 20 22  1  0
 10 11  1  0
 10 12  1  0
M  END
> <minimizedAffinity>
-8.19779

$$$$
55Z_Org43553


 39 42  0  0  0  0  0  0  0  0999 V2000
  137.8108  152.2327  153.3035 C   0  0  0  0  0  0  0  0  0  0  0  0
  136.8920  154.0898  154.3598 N   0  0  0  0  0  0  0  0  0  0  0  0
  136.0224  154.2173  153.4292 C   0  0  0  0  0  0  0  0  0  0  0  0
  136.7936  152.4557  152.3496 C   0  0  0  0  0  0  0  0  0  0  0  0
  138.2864  150.5256  151.8660 C   0  0  0  0  0  0  0  0  0  0  0  0
  138.5786  151.1417  152.9389 C   0  0  0  0  0  0  0  0  0  0  0  0
  137.8210  153.1297  154.3456 C   0  0  0  0  0  0  0  0  0  0  0  0
  135.9620  153.4105  152.4503 N   0  0  0  0  0  0  0  0  0  0  0  0
  136.9648  151.1909  151.0966 S   0  0  0  0  0  0  0  0  0  0  0  0
  139.6646  150.6452  153.6781 N   0  0  0  0  0  0  0  0  0  0  0  0
  139.9319  151.0862  154.5167 H   0  0  0  0  0  0  0  0  0  0  0  0
  140.1585  149.8561  153.3576 H   0  0  0  0  0  0  0  0  0  0  0  0
  138.2840  153.9942  156.5294 C   0  0  0  0  0  0  0  0  0  0  0  0
  138.8557  154.1955  157.6868 C   0  0  0  0  0  0  0  0  0  0  0  0
  139.9765  153.4619  157.9117 C   0  0  0  0  0  0  0  0  0  0  0  0
  139.9000  152.4221  155.7875 C   0  0  0  0  0  0  0  0  0  0  0  0
  138.7675  153.1575  155.5647 C   0  0  0  0  0  0  0  0  0  0  0  0
  140.5107  152.6137  156.9742 C   0  0  0  0  0  0  0  0  0  0  0  0
  138.1714  155.0349  160.0414 C   0  0  0  0  0  0  0  0  0  0  0  0
  138.2103  155.1351  158.5873 N   0  0  0  0  0  0  0  0  0  0  0  0
  138.6865  154.1329  160.5510 O   0  0  0  0  0  0  0  0  0  0  0  0
  137.7587  155.9089  158.1792 H   0  0  0  0  0  0  0  0  0  0  0  0
  137.4700  156.0742  160.9332 C   0  0  0  0  0  0  0  0  0  0  0  0
  136.0156  156.1267  160.9336 N   0  0  0  0  0  0  0  0  0  0  0  0
  135.3047  156.2576  159.7840 C   0  0  0  0  0  0  0  0  0  0  0  0
  134.3741  157.1927  159.7750 C   0  0  0  0  0  0  0  0  0  0  0  0
  134.0984  157.9346  160.9897 O   0  0  0  0  0  0  0  0  0  0  0  0
  134.5080  157.1950  162.1700 C   0  0  0  0  0  0  0  0  0  0  0  0
  135.2322  156.1240  162.0321 C   0  0  0  0  0  0  0  0  0  0  0  0
  138.6969  148.9624  150.0089 N   0  0  0  0  0  0  0  0  0  0  0  0
  138.8962  149.3276  151.3499 C   0  0  0  0  0  0  0  0  0  0  0  0
  139.5083  148.7500  152.0732 O   0  0  0  0  0  0  0  0  0  0  0  0
  138.1409  149.5237  149.4214 H   0  0  0  0  0  0  0  0  0  0  0  0
  139.6866  148.0245  148.0557 C   0  0  0  0  0  0  0  0  0  0  0  0
  139.2992  147.7823  149.5037 C   0  0  0  0  0  0  0  0  0  0  0  0
  138.2456  146.6997  149.5720 C   0  0  0  0  0  0  0  0  0  0  0  0
  140.4952  147.3614  150.3213 C   0  0  0  0  0  0  0  0  0  0  0  0
  134.8237  155.4810  153.5124 S   0  0  0  0  0  0  0  0  0  0  0  0
  133.2689  155.2879  152.6443 C   0  0  0  0  0  0  0  0  0  0  0  0
 38  3  1  0
 37 35  1  0
 15 14  2  0
 35 34  1  0
  3  2  1  0
 18 16  2  0
 19 23  1  0
 26 25  1  0
 19 21  2  0
  4  1  2  0
  8  3  2  0
  9  4  1  0
  8  4  1  0
 27 26  1  0
  7  1  1  0
  6 10  1  0
  9  5  1  0
 29 24  1  0
 20 14  1  0
  6  1  1  0
 19 20  1  0
 35 30  1  0
 17 13  2  0
  6  5  2  0
 27 28  1  0
  7  2  2  0
 31 30  1  0
 17 16  1  0
 18 15  1  0
 24 23  1  0
 13 14  1  0
  5 31  1  0
 25 24  1  0
 38 39  1  0
 35 36  1  0
  7 17  1  0
 32 31  2  0
 28 29  1  0
 30 33  1  0
 20 22  1  0
 10 11  1  0
 10 12  1  0
M  END
> <minimizedAffinity>
-8.17502

$$$$
55Z_Org43553


 39 42  0  0  0  0  0  0  0  0999 V2000
  136.0666  155.2069  156.7397 C   0  0  0  0  0  0  0  0  0  0  0  0
  136.0460  155.0789  154.4176 N   0  0  0  0  0  0  0  0  0  0  0  0
  134.9370  155.7162  154.3696 C   0  0  0  0  0  0  0  0  0  0  0  0
  134.8604  155.9201  156.5641 C   0  0  0  0  0  0  0  0  0  0  0  0
  135.5721  155.6199  158.9286 C   0  0  0  0  0  0  0  0  0  0  0  0
  136.3674  155.0983  158.0852 C   0  0  0  0  0  0  0  0  0  0  0  0
  136.6511  154.7800  155.5706 C   0  0  0  0  0  0  0  0  0  0  0  0
  134.3603  156.1422  155.4179 N   0  0  0  0  0  0  0  0  0  0  0  0
  134.2783  156.3728  158.1936 S   0  0  0  0  0  0  0  0  0  0  0  0
  137.5061  154.4583  158.6009 N   0  0  0  0  0  0  0  0  0  0  0  0
  138.1538  154.0382  157.9899 H   0  0  0  0  0  0  0  0  0  0  0  0
  137.6567  154.4297  159.5734 H   0  0  0  0  0  0  0  0  0  0  0  0
  137.8018  152.9250  154.5878 C   0  0  0  0  0  0  0  0  0  0  0  0
  138.7547  152.1031  154.2367 C   0  0  0  0  0  0  0  0  0  0  0  0
  139.9914  152.4228  154.6987 C   0  0  0  0  0  0  0  0  0  0  0  0
  139.2220  154.3293  155.8702 C   0  0  0  0  0  0  0  0  0  0  0  0
  137.9775  154.0092  155.3990 C   0  0  0  0  0  0  0  0  0  0  0  0
  140.2227  153.4947  155.5239 C   0  0  0  0  0  0  0  0  0  0  0  0
  139.2493  150.3397  152.4028 C   0  0  0  0  0  0  0  0  0  0  0  0
  138.3840  150.9902  153.3797 N   0  0  0  0  0  0  0  0  0  0  0  0
  140.3312  150.7279  152.2720 O   0  0  0  0  0  0  0  0  0  0  0  0
  137.4663  150.6443  153.4662 H   0  0  0  0  0  0  0  0  0  0  0  0
  138.7870  149.1595  151.5306 C   0  0  0  0  0  0  0  0  0  0  0  0
  138.4040  149.4183  150.1507 N   0  0  0  0  0  0  0  0  0  0  0  0
  138.5215  148.4697  149.1862 C   0  0  0  0  0  0  0  0  0  0  0  0
  139.1236  148.8397  148.0721 C   0  0  0  0  0  0  0  0  0  0  0  0
  139.5196  150.2240  147.9027 O   0  0  0  0  0  0  0  0  0  0  0  0
  138.7361  151.1091  148.7457 C   0  0  0  0  0  0  0  0  0  0  0  0
  137.9716  150.6013  149.6667 C   0  0  0  0  0  0  0  0  0  0  0  0
  135.4120  156.8795  161.0379 N   0  0  0  0  0  0  0  0  0  0  0  0
  135.7362  155.6951  160.3573 C   0  0  0  0  0  0  0  0  0  0  0  0
  136.1216  154.7761  160.8456 O   0  0  0  0  0  0  0  0  0  0  0  0
  135.0733  157.6584  160.5401 H   0  0  0  0  0  0  0  0  0  0  0  0
  137.0395  156.7195  162.7699 C   0  0  0  0  0  0  0  0  0  0  0  0
  135.5744  156.9500  162.4448 C   0  0  0  0  0  0  0  0  0  0  0  0
  134.7433  155.8302  163.0294 C   0  0  0  0  0  0  0  0  0  0  0  0
  135.0957  158.2664  163.0054 C   0  0  0  0  0  0  0  0  0  0  0  0
  134.2040  156.0918  152.8326 S   0  0  0  0  0  0  0  0  0  0  0  0
  134.9546  155.4913  151.3211 C   0  0  0  0  0  0  0  0  0  0  0  0
 38  3  1  0
 37 35  1  0
 15 14  2  0
 35 34  1  0
  3  2  1  0
 18 16  2  0
 19 23  1  0
 26 25  1  0
 19 21  2  0
  4  1  2  0
  8  3  2  0
  9  4  1  0
  8  4  1  0
 27 26  1  0
  7  1  1  0
  6 10  1  0
  9  5  1  0
 29 24  1  0
 20 14  1  0
  6  1  1  0
 19 20  1  0
 35 30  1  0
 17 13  2  0
  6  5  2  0
 27 28  1  0
  7  2  2  0
 31 30  1  0
 17 16  1  0
 18 15  1  0
 24 23  1  0
 13 14  1  0
  5 31  1  0
 25 24  1  0
 38 39  1  0
 35 36  1  0
  7 17  1  0
 32 31  2  0
 28 29  1  0
 30 33  1  0
 20 22  1  0
 10 11  1  0
 10 12  1  0
M  END
> <minimizedAffinity>
-7.92488

$$$$
