55Z_Org43553


 39 42  0  0  0  0  0  0  0  0999 V2000
  136.1865  155.2206  156.5943 C   0  0  0  0  0  0  0  0  0  0  0  0
  136.0873  155.0464  154.2771 N   0  0  0  0  0  0  0  0  0  0  0  0
  134.9860  155.6982  154.2526 C   0  0  0  0  0  0  0  0  0  0  0  0
  134.9849  155.9472  156.4438 C   0  0  0  0  0  0  0  0  0  0  0  0
  135.7705  155.6844  158.7893 C   0  0  0  0  0  0  0  0  0  0  0  0
  136.5303  155.1348  157.9310 C   0  0  0  0  0  0  0  0  0  0  0  0
  136.7262  154.7621  155.4155 C   0  0  0  0  0  0  0  0  0  0  0  0
  134.4502  156.1533  155.3103 N   0  0  0  0  0  0  0  0  0  0  0  0
  134.4634  156.4407  158.0819 S   0  0  0  0  0  0  0  0  0  0  0  0
  137.6767  154.4892  158.4221 N   0  0  0  0  0  0  0  0  0  0  0  0
  138.2981  154.0478  157.7989 H   0  0  0  0  0  0  0  0  0  0  0  0
  137.8591  154.4780  159.3895 H   0  0  0  0  0  0  0  0  0  0  0  0
  137.8598  152.9738  154.2984 C   0  0  0  0  0  0  0  0  0  0  0  0
  138.8015  152.1592  153.9027 C   0  0  0  0  0  0  0  0  0  0  0  0
  140.0284  152.3936  154.4361 C   0  0  0  0  0  0  0  0  0  0  0  0
  139.2702  154.2030  155.7591 C   0  0  0  0  0  0  0  0  0  0  0  0
  138.0356  153.9693  155.2164 C   0  0  0  0  0  0  0  0  0  0  0  0
  140.2590  153.3737  155.3687 C   0  0  0  0  0  0  0  0  0  0  0  0
  139.2088  149.9577  152.5971 C   0  0  0  0  0  0  0  0  0  0  0  0
  138.4316  151.1458  152.9298 N   0  0  0  0  0  0  0  0  0  0  0  0
  140.2180  149.7842  153.1354 O   0  0  0  0  0  0  0  0  0  0  0  0
  137.5800  151.2725  152.4523 H   0  0  0  0  0  0  0  0  0  0  0  0
  138.7500  148.9226  151.5553 C   0  0  0  0  0  0  0  0  0  0  0  0
  139.2389  149.0415  150.1898 N   0  0  0  0  0  0  0  0  0  0  0  0
  138.9521  150.1223  149.4193 C   0  0  0  0  0  0  0  0  0  0  0  0
  138.4959  149.8719  148.2070 C   0  0  0  0  0  0  0  0  0  0  0  0
  138.4281  148.5008  147.7408 O   0  0  0  0  0  0  0  0  0  0  0  0
  139.3540  147.6466  148.4624 C   0  0  0  0  0  0  0  0  0  0  0  0
  139.9457  148.1028  149.5265 C   0  0  0  0  0  0  0  0  0  0  0  0
  135.3296  156.7875  160.9457 N   0  0  0  0  0  0  0  0  0  0  0  0
  135.9828  155.7859  160.2099 C   0  0  0  0  0  0  0  0  0  0  0  0
  136.6744  155.0361  160.6471 O   0  0  0  0  0  0  0  0  0  0  0  0
  134.7272  157.4203  160.4920 H   0  0  0  0  0  0  0  0  0  0  0  0
  137.0123  156.6376  162.6251 C   0  0  0  0  0  0  0  0  0  0  0  0
  135.5406  156.8843  162.3446 C   0  0  0  0  0  0  0  0  0  0  0  0
  134.7131  155.7898  162.9802 C   0  0  0  0  0  0  0  0  0  0  0  0
  135.1010  158.2192  162.8931 C   0  0  0  0  0  0  0  0  0  0  0  0
  134.2076  156.0533  152.7331 S   0  0  0  0  0  0  0  0  0  0  0  0
  133.2618  154.7796  151.9016 C   0  0  0  0  0  0  0  0  0  0  0  0
 38  3  1  0
 37 35  1  0
 15 14  2  0
 35 34  1  0
  3  2  1  0
 18 16  2  0
 19 23  1  0
 26 25  1  0
 19 21  2  0
  4  1  2  0
  8  3  2  0
  9  4  1  0
  8  4  1  0
 27 26  1  0
  7  1  1  0
  6 10  1  0
  9  5  1  0
 29 24  1  0
 20 14  1  0
  6  1  1  0
 19 20  1  0
 35 30  1  0
 17 13  2  0
  6  5  2  0
 27 28  1  0
  7  2  2  0
 31 30  1  0
 17 16  1  0
 18 15  1  0
 24 23  1  0
 13 14  1  0
  5 31  1  0
 25 24  1  0
 38 39  1  0
 35 36  1  0
  7 17  1  0
 32 31  2  0
 28 29  1  0
 30 33  1  0
 20 22  1  0
 10 11  1  0
 10 12  1  0
M  END
> <minimizedAffinity>
-10.50117

$$$$
55Z_Org43553


 39 42  0  0  0  0  0  0  0  0999 V2000
  136.2920  155.0784  156.9846 C   0  0  0  0  0  0  0  0  0  0  0  0
  136.6806  154.8840  154.6998 N   0  0  0  0  0  0  0  0  0  0  0  0
  135.5887  155.4988  154.4387 C   0  0  0  0  0  0  0  0  0  0  0  0
  135.1257  155.7635  156.5786 C   0  0  0  0  0  0  0  0  0  0  0  0
  135.4159  155.5441  159.0394 C   0  0  0  0  0  0  0  0  0  0  0  0
  136.3537  155.0137  158.3647 C   0  0  0  0  0  0  0  0  0  0  0  0
  137.0782  154.6295  155.9496 C   0  0  0  0  0  0  0  0  0  0  0  0
  134.8315  155.9435  155.3562 N   0  0  0  0  0  0  0  0  0  0  0  0
  134.2610  156.2514  158.0663 S   0  0  0  0  0  0  0  0  0  0  0  0
  137.3929  154.4102  159.0913 N   0  0  0  0  0  0  0  0  0  0  0  0
  138.1433  153.9851  158.6165 H   0  0  0  0  0  0  0  0  0  0  0  0
  137.3711  154.4121  160.0756 H   0  0  0  0  0  0  0  0  0  0  0  0
  138.3802  152.7262  155.3065 C   0  0  0  0  0  0  0  0  0  0  0  0
  139.3833  151.9008  155.1680 C   0  0  0  0  0  0  0  0  0  0  0  0
  140.5366  152.2882  155.7718 C   0  0  0  0  0  0  0  0  0  0  0  0
  139.5842  154.2679  156.6508 C   0  0  0  0  0  0  0  0  0  0  0  0
  138.4244  153.8792  156.0368 C   0  0  0  0  0  0  0  0  0  0  0  0
  140.6341  153.4314  156.5249 C   0  0  0  0  0  0  0  0  0  0  0  0
  139.4197  150.5771  152.9400 C   0  0  0  0  0  0  0  0  0  0  0  0
  139.1529  150.7107  154.3673 N   0  0  0  0  0  0  0  0  0  0  0  0
  139.8468  151.4864  152.3662 O   0  0  0  0  0  0  0  0  0  0  0  0
  138.7836  149.9240  154.8298 H   0  0  0  0  0  0  0  0  0  0  0  0
  139.1536  149.2796  152.1571 C   0  0  0  0  0  0  0  0  0  0  0  0
  140.2251  148.7201  151.3468 N   0  0  0  0  0  0  0  0  0  0  0  0
  139.9793  148.1117  150.1578 C   0  0  0  0  0  0  0  0  0  0  0  0
  140.5361  146.9290  149.9798 C   0  0  0  0  0  0  0  0  0  0  0  0
  141.4374  146.4072  150.9885 O   0  0  0  0  0  0  0  0  0  0  0  0
  142.0098  147.4715  151.7930 C   0  0  0  0  0  0  0  0  0  0  0  0
  141.5281  148.6752  151.6944 C   0  0  0  0  0  0  0  0  0  0  0  0
  135.6625  156.8745  161.0962 N   0  0  0  0  0  0  0  0  0  0  0  0
  135.3259  155.6629  160.4716 C   0  0  0  0  0  0  0  0  0  0  0  0
  134.9819  154.7546  161.0083 O   0  0  0  0  0  0  0  0  0  0  0  0
  135.9601  157.6423  160.5567 H   0  0  0  0  0  0  0  0  0  0  0  0
  135.0385  158.3694  162.8426 C   0  0  0  0  0  0  0  0  0  0  0  0
  135.5724  156.9882  162.5067 C   0  0  0  0  0  0  0  0  0  0  0  0
  136.9803  156.8458  163.0396 C   0  0  0  0  0  0  0  0  0  0  0  0
  134.7041  155.9109  163.1081 C   0  0  0  0  0  0  0  0  0  0  0  0
  135.1316  155.8167  152.7862 S   0  0  0  0  0  0  0  0  0  0  0  0
  135.5571  154.6390  151.5055 C   0  0  0  0  0  0  0  0  0  0  0  0
 38  3  1  0
 37 35  1  0
 15 14  2  0
 35 34  1  0
  3  2  1  0
 18 16  2  0
 19 23  1  0
 26 25  1  0
 19 21  2  0
  4  1  2  0
  8  3  2  0
  9  4  1  0
  8  4  1  0
 27 26  1  0
  7  1  1  0
  6 10  1  0
  9  5  1  0
 29 24  1  0
 20 14  1  0
  6  1  1  0
 19 20  1  0
 35 30  1  0
 17 13  2  0
  6  5  2  0
 27 28  1  0
  7  2  2  0
 31 30  1  0
 17 16  1  0
 18 15  1  0
 24 23  1  0
 13 14  1  0
  5 31  1  0
 25 24  1  0
 38 39  1  0
 35 36  1  0
  7 17  1  0
 32 31  2  0
 28 29  1  0
 30 33  1  0
 20 22  1  0
 10 11  1  0
 10 12  1  0
M  END
> <minimizedAffinity>
-10.46688

$$$$
55Z_Org43553


 39 42  0  0  0  0  0  0  0  0999 V2000
  136.2832  155.2777  156.7369 C   0  0  0  0  0  0  0  0  0  0  0  0
  136.1133  154.7323  154.4823 N   0  0  0  0  0  0  0  0  0  0  0  0
  135.0983  155.5008  154.3496 C   0  0  0  0  0  0  0  0  0  0  0  0
  135.1749  156.1105  156.4676 C   0  0  0  0  0  0  0  0  0  0  0  0
  135.9741  156.1489  158.8229 C   0  0  0  0  0  0  0  0  0  0  0  0
  136.6432  155.3748  158.0686 C   0  0  0  0  0  0  0  0  0  0  0  0
  136.7379  154.5661  155.6516 C   0  0  0  0  0  0  0  0  0  0  0  0
  134.6444  156.1883  155.3162 N   0  0  0  0  0  0  0  0  0  0  0  0
  134.7525  156.9307  157.9998 S   0  0  0  0  0  0  0  0  0  0  0  0
  137.7139  154.6849  158.6601 N   0  0  0  0  0  0  0  0  0  0  0  0
  138.2638  154.0729  158.1194 H   0  0  0  0  0  0  0  0  0  0  0  0
  137.9146  154.8132  159.6153 H   0  0  0  0  0  0  0  0  0  0  0  0
  137.9395  152.9123  154.4058 C   0  0  0  0  0  0  0  0  0  0  0  0
  138.8519  152.0450  154.0562 C   0  0  0  0  0  0  0  0  0  0  0  0
  139.8685  151.8881  154.9432 C   0  0  0  0  0  0  0  0  0  0  0  0
  138.9583  153.4355  156.4847 C   0  0  0  0  0  0  0  0  0  0  0  0
  137.9377  153.5969  155.5873 C   0  0  0  0  0  0  0  0  0  0  0  0
  139.9117  152.5435  156.1482 C   0  0  0  0  0  0  0  0  0  0  0  0
  139.2577  150.1125  152.3775 C   0  0  0  0  0  0  0  0  0  0  0  0
  138.6861  151.3961  152.7670 N   0  0  0  0  0  0  0  0  0  0  0  0
  139.9121  149.5401  153.1408 O   0  0  0  0  0  0  0  0  0  0  0  0
  138.1388  151.8651  152.0963 H   0  0  0  0  0  0  0  0  0  0  0  0
  139.0347  149.4837  150.9910 C   0  0  0  0  0  0  0  0  0  0  0  0
  139.3243  148.0690  150.8106 N   0  0  0  0  0  0  0  0  0  0  0  0
  140.5965  147.6092  150.6917 C   0  0  0  0  0  0  0  0  0  0  0  0
  140.8321  146.7949  149.6807 C   0  0  0  0  0  0  0  0  0  0  0  0
  139.7310  146.3653  148.8410 O   0  0  0  0  0  0  0  0  0  0  0  0
  138.4606  146.4647  149.5365 C   0  0  0  0  0  0  0  0  0  0  0  0
  138.4034  147.0923  150.6738 C   0  0  0  0  0  0  0  0  0  0  0  0
  135.1907  156.3623  161.1471 N   0  0  0  0  0  0  0  0  0  0  0  0
  136.2279  156.4595  160.2059 C   0  0  0  0  0  0  0  0  0  0  0  0
  137.2671  156.7657  160.4466 O   0  0  0  0  0  0  0  0  0  0  0  0
  134.2905  156.0826  160.8631 H   0  0  0  0  0  0  0  0  0  0  0  0
  136.9349  156.5291  162.7608 C   0  0  0  0  0  0  0  0  0  0  0  0
  135.4442  156.6684  162.5083 C   0  0  0  0  0  0  0  0  0  0  0  0
  134.6935  155.6417  163.3261 C   0  0  0  0  0  0  0  0  0  0  0  0
  134.9586  158.0479  162.8791 C   0  0  0  0  0  0  0  0  0  0  0  0
  134.3355  155.6897  152.7929 S   0  0  0  0  0  0  0  0  0  0  0  0
  132.8185  154.8071  152.4351 C   0  0  0  0  0  0  0  0  0  0  0  0
 38  3  1  0
 37 35  1  0
 15 14  2  0
 35 34  1  0
  3  2  1  0
 18 16  2  0
 19 23  1  0
 26 25  1  0
 19 21  2  0
  4  1  2  0
  8  3  2  0
  9  4  1  0
  8  4  1  0
 27 26  1  0
  7  1  1  0
  6 10  1  0
  9  5  1  0
 29 24  1  0
 20 14  1  0
  6  1  1  0
 19 20  1  0
 35 30  1  0
 17 13  2  0
  6  5  2  0
 27 28  1  0
  7  2  2  0
 31 30  1  0
 17 16  1  0
 18 15  1  0
 24 23  1  0
 13 14  1  0
  5 31  1  0
 25 24  1  0
 38 39  1  0
 35 36  1  0
  7 17  1  0
 32 31  2  0
 28 29  1  0
 30 33  1  0
 20 22  1  0
 10 11  1  0
 10 12  1  0
M  END
> <minimizedAffinity>
-10.43949

$$$$
55Z_Org43553


 39 42  0  0  0  0  0  0  0  0999 V2000
  138.1950  151.9891  153.3316 C   0  0  0  0  0  0  0  0  0  0  0  0
  138.2089  153.5465  155.0589 N   0  0  0  0  0  0  0  0  0  0  0  0
  139.2663  153.0218  155.5540 C   0  0  0  0  0  0  0  0  0  0  0  0
  139.3695  151.5095  153.9522 C   0  0  0  0  0  0  0  0  0  0  0  0
  138.6680  150.2617  151.9178 C   0  0  0  0  0  0  0  0  0  0  0  0
  137.8971  151.2273  152.2165 C   0  0  0  0  0  0  0  0  0  0  0  0
  137.6176  153.0666  153.9612 C   0  0  0  0  0  0  0  0  0  0  0  0
  139.8457  152.0329  155.0069 N   0  0  0  0  0  0  0  0  0  0  0  0
  139.9452  150.1223  152.9810 S   0  0  0  0  0  0  0  0  0  0  0  0
  136.8002  151.4472  151.3676 N   0  0  0  0  0  0  0  0  0  0  0  0
  136.1726  152.1824  151.5546 H   0  0  0  0  0  0  0  0  0  0  0  0
  136.6588  150.8662  150.5854 H   0  0  0  0  0  0  0  0  0  0  0  0
  135.9908  154.7348  154.5103 C   0  0  0  0  0  0  0  0  0  0  0  0
  134.9797  155.5571  154.4186 C   0  0  0  0  0  0  0  0  0  0  0  0
  134.3124  155.5209  153.2361 C   0  0  0  0  0  0  0  0  0  0  0  0
  135.6820  153.8084  152.3470 C   0  0  0  0  0  0  0  0  0  0  0  0
  136.3571  153.8501  153.5368 C   0  0  0  0  0  0  0  0  0  0  0  0
  134.6320  154.6459  152.2283 C   0  0  0  0  0  0  0  0  0  0  0  0
  135.2387  156.2222  156.9101 C   0  0  0  0  0  0  0  0  0  0  0  0
  134.7239  156.4185  155.5601 N   0  0  0  0  0  0  0  0  0  0  0  0
  135.9077  155.3026  157.1224 O   0  0  0  0  0  0  0  0  0  0  0  0
  134.1518  157.2053  155.4085 H   0  0  0  0  0  0  0  0  0  0  0  0
  134.9278  157.1822  158.0717 C   0  0  0  0  0  0  0  0  0  0  0  0
  134.9124  156.6557  159.4283 N   0  0  0  0  0  0  0  0  0  0  0  0
  134.3034  157.3181  160.4454 C   0  0  0  0  0  0  0  0  0  0  0  0
  135.0108  157.4746  161.5480 C   0  0  0  0  0  0  0  0  0  0  0  0
  136.3191  156.8580  161.6482 O   0  0  0  0  0  0  0  0  0  0  0  0
  136.4465  155.7292  160.7441 C   0  0  0  0  0  0  0  0  0  0  0  0
  135.5344  155.5309  159.8389 C   0  0  0  0  0  0  0  0  0  0  0  0
  139.2727  148.1761  150.7577 N   0  0  0  0  0  0  0  0  0  0  0  0
  138.5905  149.4032  150.7643 C   0  0  0  0  0  0  0  0  0  0  0  0
  137.9717  149.7818  149.9244 O   0  0  0  0  0  0  0  0  0  0  0  0
  139.8039  147.9021  151.5400 H   0  0  0  0  0  0  0  0  0  0  0  0
  138.9646  148.2008  148.3958 C   0  0  0  0  0  0  0  0  0  0  0  0
  139.1939  147.3329  149.6204 C   0  0  0  0  0  0  0  0  0  0  0  0
  137.9975  146.4333  149.8351 C   0  0  0  0  0  0  0  0  0  0  0  0
  140.4297  146.4828  149.4581 C   0  0  0  0  0  0  0  0  0  0  0  0
  140.0020  153.7041  156.9802 S   0  0  0  0  0  0  0  0  0  0  0  0
  138.9658  154.3224  158.3039 C   0  0  0  0  0  0  0  0  0  0  0  0
 38  3  1  0
 37 35  1  0
 15 14  2  0
 35 34  1  0
  3  2  1  0
 18 16  2  0
 19 23  1  0
 26 25  1  0
 19 21  2  0
  4  1  2  0
  8  3  2  0
  9  4  1  0
  8  4  1  0
 27 26  1  0
  7  1  1  0
  6 10  1  0
  9  5  1  0
 29 24  1  0
 20 14  1  0
  6  1  1  0
 19 20  1  0
 35 30  1  0
 17 13  2  0
  6  5  2  0
 27 28  1  0
  7  2  2  0
 31 30  1  0
 17 16  1  0
 18 15  1  0
 24 23  1  0
 13 14  1  0
  5 31  1  0
 25 24  1  0
 38 39  1  0
 35 36  1  0
  7 17  1  0
 32 31  2  0
 28 29  1  0
 30 33  1  0
 20 22  1  0
 10 11  1  0
 10 12  1  0
M  END
> <minimizedAffinity>
-10.36609

$$$$
55Z_Org43553


 39 42  0  0  0  0  0  0  0  0999 V2000
  137.8275  152.2292  153.0852 C   0  0  0  0  0  0  0  0  0  0  0  0
  136.6994  153.8366  154.3313 N   0  0  0  0  0  0  0  0  0  0  0  0
  135.8174  153.9628  153.4122 C   0  0  0  0  0  0  0  0  0  0  0  0
  136.7875  152.4349  152.1522 C   0  0  0  0  0  0  0  0  0  0  0  0
  138.4963  150.7597  151.4729 C   0  0  0  0  0  0  0  0  0  0  0  0
  138.7175  151.2834  152.6098 C   0  0  0  0  0  0  0  0  0  0  0  0
  137.7353  153.0003  154.2200 C   0  0  0  0  0  0  0  0  0  0  0  0
  135.8493  153.2678  152.3497 N   0  0  0  0  0  0  0  0  0  0  0  0
  137.1026  151.3455  150.7691 S   0  0  0  0  0  0  0  0  0  0  0  0
  139.8574  150.8398  153.3000 N   0  0  0  0  0  0  0  0  0  0  0  0
  140.0738  151.2137  154.1846 H   0  0  0  0  0  0  0  0  0  0  0  0
  140.4400  150.1548  152.8991 H   0  0  0  0  0  0  0  0  0  0  0  0
  138.2117  153.8564  156.4043 C   0  0  0  0  0  0  0  0  0  0  0  0
  138.7833  154.0442  157.5640 C   0  0  0  0  0  0  0  0  0  0  0  0
  139.8822  153.2803  157.7958 C   0  0  0  0  0  0  0  0  0  0  0  0
  139.7870  152.2383  155.6735 C   0  0  0  0  0  0  0  0  0  0  0  0
  138.6764  153.0044  155.4436 C   0  0  0  0  0  0  0  0  0  0  0  0
  140.3970  152.4156  156.8627 C   0  0  0  0  0  0  0  0  0  0  0  0
  138.3426  155.0660  159.9047 C   0  0  0  0  0  0  0  0  0  0  0  0
  138.1599  155.0034  158.4594 N   0  0  0  0  0  0  0  0  0  0  0  0
  139.0350  154.2905  160.4122 O   0  0  0  0  0  0  0  0  0  0  0  0
  137.5604  155.6709  158.0541 H   0  0  0  0  0  0  0  0  0  0  0  0
  137.6503  156.1164  160.7907 C   0  0  0  0  0  0  0  0  0  0  0  0
  136.1979  156.1061  160.8816 N   0  0  0  0  0  0  0  0  0  0  0  0
  135.4119  156.2901  159.7896 C   0  0  0  0  0  0  0  0  0  0  0  0
  134.4473  157.1824  159.9069 C   0  0  0  0  0  0  0  0  0  0  0  0
  134.2197  157.8207  161.1886 O   0  0  0  0  0  0  0  0  0  0  0  0
  134.7305  157.0149  162.2829 C   0  0  0  0  0  0  0  0  0  0  0  0
  135.4854  155.9891  162.0215 C   0  0  0  0  0  0  0  0  0  0  0  0
  138.5848  148.5381  150.4157 N   0  0  0  0  0  0  0  0  0  0  0  0
  139.2416  149.7065  150.8335 C   0  0  0  0  0  0  0  0  0  0  0  0
  140.3278  149.8952  150.7067 O   0  0  0  0  0  0  0  0  0  0  0  0
  137.6160  148.4377  150.5594 H   0  0  0  0  0  0  0  0  0  0  0  0
  140.3624  146.9916  150.7661 C   0  0  0  0  0  0  0  0  0  0  0  0
  139.3216  147.5031  149.7860 C   0  0  0  0  0  0  0  0  0  0  0  0
  140.0116  148.1305  148.5956 C   0  0  0  0  0  0  0  0  0  0  0  0
  138.4309  146.3830  149.3081 C   0  0  0  0  0  0  0  0  0  0  0  0
  134.4780  155.0593  153.6230 S   0  0  0  0  0  0  0  0  0  0  0  0
  133.1026  155.0107  152.4766 C   0  0  0  0  0  0  0  0  0  0  0  0
 38  3  1  0
 37 35  1  0
 15 14  2  0
 35 34  1  0
  3  2  1  0
 18 16  2  0
 19 23  1  0
 26 25  1  0
 19 21  2  0
  4  1  2  0
  8  3  2  0
  9  4  1  0
  8  4  1  0
 27 26  1  0
  7  1  1  0
  6 10  1  0
  9  5  1  0
 29 24  1  0
 20 14  1  0
  6  1  1  0
 19 20  1  0
 35 30  1  0
 17 13  2  0
  6  5  2  0
 27 28  1  0
  7  2  2  0
 31 30  1  0
 17 16  1  0
 18 15  1  0
 24 23  1  0
 13 14  1  0
  5 31  1  0
 25 24  1  0
 38 39  1  0
 35 36  1  0
  7 17  1  0
 32 31  2  0
 28 29  1  0
 30 33  1  0
 20 22  1  0
 10 11  1  0
 10 12  1  0
M  END
> <minimizedAffinity>
-10.33668

$$$$
55Z_Org43553


 39 42  0  0  0  0  0  0  0  0999 V2000
  137.7222  152.4906  152.9562 C   0  0  0  0  0  0  0  0  0  0  0  0
  136.5580  154.1714  154.0647 N   0  0  0  0  0  0  0  0  0  0  0  0
  135.6315  154.1431  153.1819 C   0  0  0  0  0  0  0  0  0  0  0  0
  136.6330  152.5313  152.0583 C   0  0  0  0  0  0  0  0  0  0  0  0
  138.4047  150.8799  151.4912 C   0  0  0  0  0  0  0  0  0  0  0  0
  138.6440  151.5436  152.5486 C   0  0  0  0  0  0  0  0  0  0  0  0
  137.6346  153.3831  153.9986 C   0  0  0  0  0  0  0  0  0  0  0  0
  135.6577  153.3315  152.2054 N   0  0  0  0  0  0  0  0  0  0  0  0
  136.9505  151.3058  150.7948 S   0  0  0  0  0  0  0  0  0  0  0  0
  139.8361  151.2437  153.2278 N   0  0  0  0  0  0  0  0  0  0  0  0
  140.0685  151.7292  154.0522 H   0  0  0  0  0  0  0  0  0  0  0  0
  140.4394  150.5481  152.8795 H   0  0  0  0  0  0  0  0  0  0  0  0
  137.9568  153.8703  156.3202 C   0  0  0  0  0  0  0  0  0  0  0  0
  138.5304  154.0571  157.4790 C   0  0  0  0  0  0  0  0  0  0  0  0
  139.8785  153.8915  157.4887 C   0  0  0  0  0  0  0  0  0  0  0  0
  139.9847  153.4178  155.1728 C   0  0  0  0  0  0  0  0  0  0  0  0
  138.6256  153.5792  155.1658 C   0  0  0  0  0  0  0  0  0  0  0  0
  140.6009  153.6079  156.3568 C   0  0  0  0  0  0  0  0  0  0  0  0
  136.2689  154.7910  158.5106 C   0  0  0  0  0  0  0  0  0  0  0  0
  137.6639  154.3763  158.6005 N   0  0  0  0  0  0  0  0  0  0  0  0
  135.7841  154.8900  157.4649 O   0  0  0  0  0  0  0  0  0  0  0  0
  138.0535  154.3065  159.5020 H   0  0  0  0  0  0  0  0  0  0  0  0
  135.4095  155.1095  159.7465 C   0  0  0  0  0  0  0  0  0  0  0  0
  135.7350  156.2855  160.5397 N   0  0  0  0  0  0  0  0  0  0  0  0
  136.8454  156.3367  161.3197 C   0  0  0  0  0  0  0  0  0  0  0  0
  136.6684  156.7395  162.5635 C   0  0  0  0  0  0  0  0  0  0  0  0
  135.3574  157.1921  162.9856 O   0  0  0  0  0  0  0  0  0  0  0  0
  134.5581  157.6350  161.8575 C   0  0  0  0  0  0  0  0  0  0  0  0
  134.9712  157.3924  160.6487 C   0  0  0  0  0  0  0  0  0  0  0  0
  138.5361  148.6558  150.4436 N   0  0  0  0  0  0  0  0  0  0  0  0
  139.1813  149.7996  150.9402 C   0  0  0  0  0  0  0  0  0  0  0  0
  140.2810  149.9483  150.9432 O   0  0  0  0  0  0  0  0  0  0  0  0
  137.5541  148.5912  150.4717 H   0  0  0  0  0  0  0  0  0  0  0  0
  140.3062  147.1441  150.9493 C   0  0  0  0  0  0  0  0  0  0  0  0
  139.3037  147.5941  149.9013 C   0  0  0  0  0  0  0  0  0  0  0  0
  140.0386  148.1617  148.7078 C   0  0  0  0  0  0  0  0  0  0  0  0
  138.4395  146.4431  149.4490 C   0  0  0  0  0  0  0  0  0  0  0  0
  134.2415  155.1852  153.3318 S   0  0  0  0  0  0  0  0  0  0  0  0
  132.7440  154.8030  152.4264 C   0  0  0  0  0  0  0  0  0  0  0  0
 38  3  1  0
 37 35  1  0
 15 14  2  0
 35 34  1  0
  3  2  1  0
 18 16  2  0
 19 23  1  0
 26 25  1  0
 19 21  2  0
  4  1  2  0
  8  3  2  0
  9  4  1  0
  8  4  1  0
 27 26  1  0
  7  1  1  0
  6 10  1  0
  9  5  1  0
 29 24  1  0
 20 14  1  0
  6  1  1  0
 19 20  1  0
 35 30  1  0
 17 13  2  0
  6  5  2  0
 27 28  1  0
  7  2  2  0
 31 30  1  0
 17 16  1  0
 18 15  1  0
 24 23  1  0
 13 14  1  0
  5 31  1  0
 25 24  1  0
 38 39  1  0
 35 36  1  0
  7 17  1  0
 32 31  2  0
 28 29  1  0
 30 33  1  0
 20 22  1  0
 10 11  1  0
 10 12  1  0
M  END
> <minimizedAffinity>
-10.26624

$$$$
55Z_Org43553


 39 42  0  0  0  0  0  0  0  0999 V2000
  136.1432  155.3969  156.9367 C   0  0  0  0  0  0  0  0  0  0  0  0
  136.6700  154.8482  154.7388 N   0  0  0  0  0  0  0  0  0  0  0  0
  135.6493  155.4905  154.3098 C   0  0  0  0  0  0  0  0  0  0  0  0
  135.0639  156.0926  156.3490 C   0  0  0  0  0  0  0  0  0  0  0  0
  135.1682  156.2127  158.8314 C   0  0  0  0  0  0  0  0  0  0  0  0
  136.1057  155.5286  158.3128 C   0  0  0  0  0  0  0  0  0  0  0  0
  136.9608  154.7511  156.0392 C   0  0  0  0  0  0  0  0  0  0  0  0
  134.8682  156.1131  155.0942 N   0  0  0  0  0  0  0  0  0  0  0  0
  134.1404  156.8475  157.6818 S   0  0  0  0  0  0  0  0  0  0  0  0
  137.0432  154.9683  159.1957 N   0  0  0  0  0  0  0  0  0  0  0  0
  137.7889  154.4296  158.8450 H   0  0  0  0  0  0  0  0  0  0  0  0
  136.9547  155.1141  160.1653 H   0  0  0  0  0  0  0  0  0  0  0  0
  138.3058  152.8403  155.5192 C   0  0  0  0  0  0  0  0  0  0  0  0
  139.2892  151.9801  155.5194 C   0  0  0  0  0  0  0  0  0  0  0  0
  140.3055  152.2663  156.3739 C   0  0  0  0  0  0  0  0  0  0  0  0
  139.2563  154.2192  157.2011 C   0  0  0  0  0  0  0  0  0  0  0  0
  138.2357  153.9328  156.3353 C   0  0  0  0  0  0  0  0  0  0  0  0
  140.2824  153.3448  157.2222 C   0  0  0  0  0  0  0  0  0  0  0  0
  139.7645  150.8135  153.2544 C   0  0  0  0  0  0  0  0  0  0  0  0
  139.1906  150.8647  154.5939 N   0  0  0  0  0  0  0  0  0  0  0  0
  140.3502  151.7318  152.8644 O   0  0  0  0  0  0  0  0  0  0  0  0
  138.6917  150.0725  154.8983 H   0  0  0  0  0  0  0  0  0  0  0  0
  139.6222  149.5921  152.3296 C   0  0  0  0  0  0  0  0  0  0  0  0
  139.3908  149.8137  150.9100 N   0  0  0  0  0  0  0  0  0  0  0  0
  138.3757  150.5985  150.4651 C   0  0  0  0  0  0  0  0  0  0  0  0
  137.6096  150.0849  149.5218 C   0  0  0  0  0  0  0  0  0  0  0  0
  137.9467  148.7937  148.9551 O   0  0  0  0  0  0  0  0  0  0  0  0
  139.3561  148.4894  149.1245 C   0  0  0  0  0  0  0  0  0  0  0  0
  140.0806  149.2359  149.9045 C   0  0  0  0  0  0  0  0  0  0  0  0
  136.0474  156.3558  161.1265 N   0  0  0  0  0  0  0  0  0  0  0  0
  134.9905  156.5434  160.2216 C   0  0  0  0  0  0  0  0  0  0  0  0
  133.9918  156.9413  160.4969 O   0  0  0  0  0  0  0  0  0  0  0  0
  136.9093  155.9985  160.8122 H   0  0  0  0  0  0  0  0  0  0  0  0
  135.3514  158.1075  162.5831 C   0  0  0  0  0  0  0  0  0  0  0  0
  135.8693  156.6828  162.4947 C   0  0  0  0  0  0  0  0  0  0  0  0
  137.2355  156.5995  163.1374 C   0  0  0  0  0  0  0  0  0  0  0  0
  134.9357  155.7231  163.1902 C   0  0  0  0  0  0  0  0  0  0  0  0
  135.3316  155.5958  152.5985 S   0  0  0  0  0  0  0  0  0  0  0  0
  133.6667  155.3439  151.9878 C   0  0  0  0  0  0  0  0  0  0  0  0
 38  3  1  0
 37 35  1  0
 15 14  2  0
 35 34  1  0
  3  2  1  0
 18 16  2  0
 19 23  1  0
 26 25  1  0
 19 21  2  0
  4  1  2  0
  8  3  2  0
  9  4  1  0
  8  4  1  0
 27 26  1  0
  7  1  1  0
  6 10  1  0
  9  5  1  0
 29 24  1  0
 20 14  1  0
  6  1  1  0
 19 20  1  0
 35 30  1  0
 17 13  2  0
  6  5  2  0
 27 28  1  0
  7  2  2  0
 31 30  1  0
 17 16  1  0
 18 15  1  0
 24 23  1  0
 13 14  1  0
  5 31  1  0
 25 24  1  0
 38 39  1  0
 35 36  1  0
  7 17  1  0
 32 31  2  0
 28 29  1  0
 30 33  1  0
 20 22  1  0
 10 11  1  0
 10 12  1  0
M  END
> <minimizedAffinity>
-9.94759

$$$$
55Z_Org43553


 39 42  0  0  0  0  0  0  0  0999 V2000
  137.5453  152.2608  152.9260 C   0  0  0  0  0  0  0  0  0  0  0  0
  136.7590  153.9971  154.2588 N   0  0  0  0  0  0  0  0  0  0  0  0
  135.8308  154.2542  153.4158 C   0  0  0  0  0  0  0  0  0  0  0  0
  136.4710  152.6187  152.0821 C   0  0  0  0  0  0  0  0  0  0  0  0
  137.8674  150.7288  151.2660 C   0  0  0  0  0  0  0  0  0  0  0  0
  138.2524  151.2052  152.3800 C   0  0  0  0  0  0  0  0  0  0  0  0
  137.6553  153.0258  154.0633 C   0  0  0  0  0  0  0  0  0  0  0  0
  135.6777  153.5723  152.3553 N   0  0  0  0  0  0  0  0  0  0  0  0
  136.5160  151.5101  150.6792 S   0  0  0  0  0  0  0  0  0  0  0  0
  139.3719  150.6001  152.9740 N   0  0  0  0  0  0  0  0  0  0  0  0
  139.7105  150.9313  153.8371 H   0  0  0  0  0  0  0  0  0  0  0  0
  139.8182  149.8448  152.5273 H   0  0  0  0  0  0  0  0  0  0  0  0
  138.4464  153.8092  156.1826 C   0  0  0  0  0  0  0  0  0  0  0  0
  139.1369  153.9104  157.2871 C   0  0  0  0  0  0  0  0  0  0  0  0
  140.1147  152.9806  157.4432 C   0  0  0  0  0  0  0  0  0  0  0  0
  139.6739  151.9526  155.3580 C   0  0  0  0  0  0  0  0  0  0  0  0
  138.6852  152.8865  155.2048 C   0  0  0  0  0  0  0  0  0  0  0  0
  140.4031  152.0374  156.4889 C   0  0  0  0  0  0  0  0  0  0  0  0
  138.3075  154.7735  159.5859 C   0  0  0  0  0  0  0  0  0  0  0  0
  138.7537  154.9641  158.2108 N   0  0  0  0  0  0  0  0  0  0  0  0
  138.2359  153.6970  160.0035 O   0  0  0  0  0  0  0  0  0  0  0  0
  138.7993  155.8898  157.8787 H   0  0  0  0  0  0  0  0  0  0  0  0
  137.9209  155.9418  160.5094 C   0  0  0  0  0  0  0  0  0  0  0  0
  136.5334  156.0713  160.9290 N   0  0  0  0  0  0  0  0  0  0  0  0
  135.5113  156.0487  160.0352 C   0  0  0  0  0  0  0  0  0  0  0  0
  134.6222  157.0179  160.1388 C   0  0  0  0  0  0  0  0  0  0  0  0
  134.7239  157.9635  161.2331 O   0  0  0  0  0  0  0  0  0  0  0  0
  135.4667  157.4077  162.3499 C   0  0  0  0  0  0  0  0  0  0  0  0
  136.1146  156.2915  162.1926 C   0  0  0  0  0  0  0  0  0  0  0  0
  139.4863  148.8803  151.1131 N   0  0  0  0  0  0  0  0  0  0  0  0
  138.4032  149.5886  150.5687 C   0  0  0  0  0  0  0  0  0  0  0  0
  137.9048  149.3337  149.6104 O   0  0  0  0  0  0  0  0  0  0  0  0
  139.8800  149.1622  151.9703 H   0  0  0  0  0  0  0  0  0  0  0  0
  141.1797  147.2086  151.2233 C   0  0  0  0  0  0  0  0  0  0  0  0
  140.0112  147.7576  150.4241 C   0  0  0  0  0  0  0  0  0  0  0  0
  140.5052  148.2663  149.0885 C   0  0  0  0  0  0  0  0  0  0  0  0
  138.9658  146.6946  150.1930 C   0  0  0  0  0  0  0  0  0  0  0  0
  134.6795  155.5244  153.7351 S   0  0  0  0  0  0  0  0  0  0  0  0
  135.2040  156.9989  154.6066 C   0  0  0  0  0  0  0  0  0  0  0  0
 38  3  1  0
 37 35  1  0
 15 14  2  0
 35 34  1  0
  3  2  1  0
 18 16  2  0
 19 23  1  0
 26 25  1  0
 19 21  2  0
  4  1  2  0
  8  3  2  0
  9  4  1  0
  8  4  1  0
 27 26  1  0
  7  1  1  0
  6 10  1  0
  9  5  1  0
 29 24  1  0
 20 14  1  0
  6  1  1  0
 19 20  1  0
 35 30  1  0
 17 13  2  0
  6  5  2  0
 27 28  1  0
  7  2  2  0
 31 30  1  0
 17 16  1  0
 18 15  1  0
 24 23  1  0
 13 14  1  0
  5 31  1  0
 25 24  1  0
 38 39  1  0
 35 36  1  0
  7 17  1  0
 32 31  2  0
 28 29  1  0
 30 33  1  0
 20 22  1  0
 10 11  1  0
 10 12  1  0
M  END
> <minimizedAffinity>
-9.94459

$$$$
55Z_Org43553


 39 42  0  0  0  0  0  0  0  0999 V2000
  136.2238  154.9474  156.4499 C   0  0  0  0  0  0  0  0  0  0  0  0
  136.1006  154.2367  154.2388 N   0  0  0  0  0  0  0  0  0  0  0  0
  135.0311  154.9160  154.0562 C   0  0  0  0  0  0  0  0  0  0  0  0
  135.0569  155.6743  156.1269 C   0  0  0  0  0  0  0  0  0  0  0  0
  135.8453  155.9348  158.4717 C   0  0  0  0  0  0  0  0  0  0  0  0
  136.5723  155.1629  157.7707 C   0  0  0  0  0  0  0  0  0  0  0  0
  136.7331  154.1988  155.4149 C   0  0  0  0  0  0  0  0  0  0  0  0
  134.5247  155.6325  154.9744 N   0  0  0  0  0  0  0  0  0  0  0  0
  134.5704  156.5643  157.6001 S   0  0  0  0  0  0  0  0  0  0  0  0
  137.6903  154.5975  158.4053 N   0  0  0  0  0  0  0  0  0  0  0  0
  138.2859  153.9927  157.9066 H   0  0  0  0  0  0  0  0  0  0  0  0
  137.8786  154.8061  159.3489 H   0  0  0  0  0  0  0  0  0  0  0  0
  137.8368  152.2375  154.5986 C   0  0  0  0  0  0  0  0  0  0  0  0
  138.7539  151.3345  154.3746 C   0  0  0  0  0  0  0  0  0  0  0  0
  139.9479  151.5624  154.9807 C   0  0  0  0  0  0  0  0  0  0  0  0
  139.2030  153.5480  156.0302 C   0  0  0  0  0  0  0  0  0  0  0  0
  138.0023  153.3201  155.4142 C   0  0  0  0  0  0  0  0  0  0  0  0
  140.1658  152.6285  155.8170 C   0  0  0  0  0  0  0  0  0  0  0  0
  139.1105  149.8551  152.2766 C   0  0  0  0  0  0  0  0  0  0  0  0
  138.3986  150.2382  153.4901 N   0  0  0  0  0  0  0  0  0  0  0  0
  140.0414  150.4654  151.9615 O   0  0  0  0  0  0  0  0  0  0  0  0
  137.6061  149.7063  153.7316 H   0  0  0  0  0  0  0  0  0  0  0  0
  138.6764  148.6756  151.3891 C   0  0  0  0  0  0  0  0  0  0  0  0
  138.6606  148.8563  149.9452 N   0  0  0  0  0  0  0  0  0  0  0  0
  139.4666  148.1334  149.1254 C   0  0  0  0  0  0  0  0  0  0  0  0
  140.1562  148.8167  148.2320 C   0  0  0  0  0  0  0  0  0  0  0  0
  139.9426  150.2453  148.1082 O   0  0  0  0  0  0  0  0  0  0  0  0
  138.6370  150.6340  148.6102 C   0  0  0  0  0  0  0  0  0  0  0  0
  137.9283  149.7728  149.2786 C   0  0  0  0  0  0  0  0  0  0  0  0
  135.1104  156.0891  160.8164 N   0  0  0  0  0  0  0  0  0  0  0  0
  136.0719  156.3582  159.8293 C   0  0  0  0  0  0  0  0  0  0  0  0
  137.0290  156.8886  160.0137 O   0  0  0  0  0  0  0  0  0  0  0  0
  134.2818  155.6119  160.5818 H   0  0  0  0  0  0  0  0  0  0  0  0
  134.5344  155.6093  163.0774 C   0  0  0  0  0  0  0  0  0  0  0  0
  135.3368  156.5070  162.1523 C   0  0  0  0  0  0  0  0  0  0  0  0
  134.8228  157.9256  162.2513 C   0  0  0  0  0  0  0  0  0  0  0  0
  136.8017  156.4850  162.5127 C   0  0  0  0  0  0  0  0  0  0  0  0
  134.2600  154.9394  152.4924 S   0  0  0  0  0  0  0  0  0  0  0  0
  133.8194  153.3961  151.6971 C   0  0  0  0  0  0  0  0  0  0  0  0
 38  3  1  0
 37 35  1  0
 15 14  2  0
 35 34  1  0
  3  2  1  0
 18 16  2  0
 19 23  1  0
 26 25  1  0
 19 21  2  0
  4  1  2  0
  8  3  2  0
  9  4  1  0
  8  4  1  0
 27 26  1  0
  7  1  1  0
  6 10  1  0
  9  5  1  0
 29 24  1  0
 20 14  1  0
  6  1  1  0
 19 20  1  0
 35 30  1  0
 17 13  2  0
  6  5  2  0
 27 28  1  0
  7  2  2  0
 31 30  1  0
 17 16  1  0
 18 15  1  0
 24 23  1  0
 13 14  1  0
  5 31  1  0
 25 24  1  0
 38 39  1  0
 35 36  1  0
  7 17  1  0
 32 31  2  0
 28 29  1  0
 30 33  1  0
 20 22  1  0
 10 11  1  0
 10 12  1  0
M  END
> <minimizedAffinity>
-9.83701

$$$$
