55Z_Org43553


 39 42  0  0  0  0  0  0  0  0999 V2000
  137.7764  152.3851  153.3721 C   0  0  0  0  0  0  0  0  0  0  0  0
  136.7321  154.1762  154.4259 N   0  0  0  0  0  0  0  0  0  0  0  0
  135.8193  154.2012  153.5289 C   0  0  0  0  0  0  0  0  0  0  0  0
  136.7069  152.4912  152.4559 C   0  0  0  0  0  0  0  0  0  0  0  0
  138.3511  150.6937  151.9525 C   0  0  0  0  0  0  0  0  0  0  0  0
  138.6265  151.3599  152.9995 C   0  0  0  0  0  0  0  0  0  0  0  0
  137.7442  153.3046  154.3940 C   0  0  0  0  0  0  0  0  0  0  0  0
  135.7957  153.3685  152.5703 N   0  0  0  0  0  0  0  0  0  0  0  0
  136.9454  151.2168  151.2237 S   0  0  0  0  0  0  0  0  0  0  0  0
  139.7812  150.9826  153.7042 N   0  0  0  0  0  0  0  0  0  0  0  0
  140.0391  151.4665  154.5219 H   0  0  0  0  0  0  0  0  0  0  0  0
  140.3329  150.2341  153.3805 H   0  0  0  0  0  0  0  0  0  0  0  0
  138.1236  154.0534  156.6359 C   0  0  0  0  0  0  0  0  0  0  0  0
  138.7016  154.2802  157.7854 C   0  0  0  0  0  0  0  0  0  0  0  0
  139.9752  153.8201  157.8912 C   0  0  0  0  0  0  0  0  0  0  0  0
  140.0156  152.9893  155.6760 C   0  0  0  0  0  0  0  0  0  0  0  0
  138.7304  153.4483  155.5728 C   0  0  0  0  0  0  0  0  0  0  0  0
  140.6355  153.2137  156.8521 C   0  0  0  0  0  0  0  0  0  0  0  0
  138.3823  155.3656  160.1172 C   0  0  0  0  0  0  0  0  0  0  0  0
  137.9096  154.9517  158.8013 N   0  0  0  0  0  0  0  0  0  0  0  0
  139.4803  155.1464  160.4083 O   0  0  0  0  0  0  0  0  0  0  0  0
  136.9695  155.1446  158.5818 H   0  0  0  0  0  0  0  0  0  0  0  0
  137.4838  156.0785  161.1428 C   0  0  0  0  0  0  0  0  0  0  0  0
  136.0464  156.1010  160.9161 N   0  0  0  0  0  0  0  0  0  0  0  0
  135.5210  156.2417  159.6719 C   0  0  0  0  0  0  0  0  0  0  0  0
  134.5813  157.1574  159.5339 C   0  0  0  0  0  0  0  0  0  0  0  0
  134.1016  157.8673  160.7034 O   0  0  0  0  0  0  0  0  0  0  0  0
  134.3391  157.1113  161.9199 C   0  0  0  0  0  0  0  0  0  0  0  0
  135.1012  156.0587  161.8781 C   0  0  0  0  0  0  0  0  0  0  0  0
  138.5266  148.8438  150.3375 N   0  0  0  0  0  0  0  0  0  0  0  0
  139.0481  149.5439  151.4371 C   0  0  0  0  0  0  0  0  0  0  0  0
  139.9887  149.2770  151.9621 O   0  0  0  0  0  0  0  0  0  0  0  0
  137.6853  149.1375  149.9188 H   0  0  0  0  0  0  0  0  0  0  0  0
  139.7493  148.0533  148.4522 C   0  0  0  0  0  0  0  0  0  0  0  0
  139.2156  147.7122  149.8322 C   0  0  0  0  0  0  0  0  0  0  0  0
  138.1945  146.6024  149.7205 C   0  0  0  0  0  0  0  0  0  0  0  0
  140.3289  147.2700  150.7494 C   0  0  0  0  0  0  0  0  0  0  0  0
  134.5136  155.3522  153.6343 S   0  0  0  0  0  0  0  0  0  0  0  0
  133.0854  155.1741  152.5681 C   0  0  0  0  0  0  0  0  0  0  0  0
 38  3  1  0
 37 35  1  0
 15 14  2  0
 35 34  1  0
  3  2  1  0
 18 16  2  0
 19 23  1  0
 26 25  1  0
 19 21  2  0
  4  1  2  0
  8  3  2  0
  9  4  1  0
  8  4  1  0
 27 26  1  0
  7  1  1  0
  6 10  1  0
  9  5  1  0
 29 24  1  0
 20 14  1  0
  6  1  1  0
 19 20  1  0
 35 30  1  0
 17 13  2  0
  6  5  2  0
 27 28  1  0
  7  2  2  0
 31 30  1  0
 17 16  1  0
 18 15  1  0
 24 23  1  0
 13 14  1  0
  5 31  1  0
 25 24  1  0
 38 39  1  0
 35 36  1  0
  7 17  1  0
 32 31  2  0
 28 29  1  0
 30 33  1  0
 20 22  1  0
 10 11  1  0
 10 12  1  0
M  END
> <minimizedAffinity>
-8.60689

$$$$
55Z_Org43553


 39 42  0  0  0  0  0  0  0  0999 V2000
  138.2048  152.2695  153.7017 C   0  0  0  0  0  0  0  0  0  0  0  0
  138.2595  153.8504  155.4067 N   0  0  0  0  0  0  0  0  0  0  0  0
  139.2636  153.2676  155.9458 C   0  0  0  0  0  0  0  0  0  0  0  0
  139.3242  151.7263  154.3697 C   0  0  0  0  0  0  0  0  0  0  0  0
  138.6141  150.4932  152.3294 C   0  0  0  0  0  0  0  0  0  0  0  0
  137.8969  151.5105  152.5875 C   0  0  0  0  0  0  0  0  0  0  0  0
  137.6765  153.3916  154.2957 C   0  0  0  0  0  0  0  0  0  0  0  0
  139.7967  152.2352  155.4331 N   0  0  0  0  0  0  0  0  0  0  0  0
  139.8426  150.2898  153.4386 S   0  0  0  0  0  0  0  0  0  0  0  0
  136.8459  151.7861  151.6976 N   0  0  0  0  0  0  0  0  0  0  0  0
  136.2608  152.5625  151.8523 H   0  0  0  0  0  0  0  0  0  0  0  0
  136.6944  151.2028  150.9191 H   0  0  0  0  0  0  0  0  0  0  0  0
  135.9212  154.9168  154.8648 C   0  0  0  0  0  0  0  0  0  0  0  0
  134.9141  155.7422  154.7587 C   0  0  0  0  0  0  0  0  0  0  0  0
  134.4674  155.9471  153.4924 C   0  0  0  0  0  0  0  0  0  0  0  0
  136.0311  154.4478  152.5407 C   0  0  0  0  0  0  0  0  0  0  0  0
  136.4840  154.2467  153.8165 C   0  0  0  0  0  0  0  0  0  0  0  0
  134.9901  155.2936  152.4046 C   0  0  0  0  0  0  0  0  0  0  0  0
  134.3998  155.7257  157.2988 C   0  0  0  0  0  0  0  0  0  0  0  0
  134.4313  156.3553  155.9840 N   0  0  0  0  0  0  0  0  0  0  0  0
  134.7807  154.6384  157.4045 O   0  0  0  0  0  0  0  0  0  0  0  0
  134.0953  157.2785  155.9210 H   0  0  0  0  0  0  0  0  0  0  0  0
  133.8764  156.4410  158.5565 C   0  0  0  0  0  0  0  0  0  0  0  0
  134.8356  156.8939  159.5529 N   0  0  0  0  0  0  0  0  0  0  0  0
  136.1709  156.7002  159.3997 C   0  0  0  0  0  0  0  0  0  0  0  0
  136.8084  156.1791  160.4305 C   0  0  0  0  0  0  0  0  0  0  0  0
  136.0907  155.9475  161.6687 O   0  0  0  0  0  0  0  0  0  0  0  0
  134.9195  156.7991  161.7726 C   0  0  0  0  0  0  0  0  0  0  0  0
  134.5258  157.4721  160.7321 C   0  0  0  0  0  0  0  0  0  0  0  0
  139.3863  148.5233  151.0707 N   0  0  0  0  0  0  0  0  0  0  0  0
  138.5211  149.6230  151.1859 C   0  0  0  0  0  0  0  0  0  0  0  0
  137.7407  149.8879  150.4427 O   0  0  0  0  0  0  0  0  0  0  0  0
  140.0564  148.3466  151.7700 H   0  0  0  0  0  0  0  0  0  0  0  0
  140.5912  146.8922  149.8209 C   0  0  0  0  0  0  0  0  0  0  0  0
  139.2918  147.6681  149.9436 C   0  0  0  0  0  0  0  0  0  0  0  0
  139.1210  148.5645  148.7378 C   0  0  0  0  0  0  0  0  0  0  0  0
  138.1104  146.7345  150.0377 C   0  0  0  0  0  0  0  0  0  0  0  0
  139.9924  153.9245  157.3874 S   0  0  0  0  0  0  0  0  0  0  0  0
  139.1269  153.8082  158.9513 C   0  0  0  0  0  0  0  0  0  0  0  0
 38  3  1  0
 37 35  1  0
 15 14  2  0
 35 34  1  0
  3  2  1  0
 18 16  2  0
 19 23  1  0
 26 25  1  0
 19 21  2  0
  4  1  2  0
  8  3  2  0
  9  4  1  0
  8  4  1  0
 27 26  1  0
  7  1  1  0
  6 10  1  0
  9  5  1  0
 29 24  1  0
 20 14  1  0
  6  1  1  0
 19 20  1  0
 35 30  1  0
 17 13  2  0
  6  5  2  0
 27 28  1  0
  7  2  2  0
 31 30  1  0
 17 16  1  0
 18 15  1  0
 24 23  1  0
 13 14  1  0
  5 31  1  0
 25 24  1  0
 38 39  1  0
 35 36  1  0
  7 17  1  0
 32 31  2  0
 28 29  1  0
 30 33  1  0
 20 22  1  0
 10 11  1  0
 10 12  1  0
M  END
> <minimizedAffinity>
-8.53038

$$$$
55Z_Org43553


 39 42  0  0  0  0  0  0  0  0999 V2000
  136.0753  155.1211  156.6402 C   0  0  0  0  0  0  0  0  0  0  0  0
  136.0674  154.9165  154.3234 N   0  0  0  0  0  0  0  0  0  0  0  0
  134.9468  155.5309  154.2502 C   0  0  0  0  0  0  0  0  0  0  0  0
  134.8567  155.8053  156.4365 C   0  0  0  0  0  0  0  0  0  0  0  0
  135.5635  155.5965  158.8124 C   0  0  0  0  0  0  0  0  0  0  0  0
  136.3721  155.0625  157.9896 C   0  0  0  0  0  0  0  0  0  0  0  0
  136.6728  154.6671  155.4879 C   0  0  0  0  0  0  0  0  0  0  0  0
  134.3577  155.9802  155.2818 N   0  0  0  0  0  0  0  0  0  0  0  0
  134.2591  156.3003  158.0480 S   0  0  0  0  0  0  0  0  0  0  0  0
  137.5203  154.4613  158.5305 N   0  0  0  0  0  0  0  0  0  0  0  0
  138.1785  154.0337  157.9361 H   0  0  0  0  0  0  0  0  0  0  0  0
  137.6671  154.4676  159.5039 H   0  0  0  0  0  0  0  0  0  0  0  0
  137.8632  152.8050  154.5678 C   0  0  0  0  0  0  0  0  0  0  0  0
  138.8331  151.9907  154.2469 C   0  0  0  0  0  0  0  0  0  0  0  0
  140.0609  152.3469  154.7057 C   0  0  0  0  0  0  0  0  0  0  0  0
  139.2498  154.2733  155.8149 C   0  0  0  0  0  0  0  0  0  0  0  0
  138.0142  153.9162  155.3469 C   0  0  0  0  0  0  0  0  0  0  0  0
  140.2676  153.4473  155.4994 C   0  0  0  0  0  0  0  0  0  0  0  0
  139.3578  150.2066  152.4415 C   0  0  0  0  0  0  0  0  0  0  0  0
  138.4879  150.8458  153.4219 N   0  0  0  0  0  0  0  0  0  0  0  0
  140.4213  150.6323  152.2800 O   0  0  0  0  0  0  0  0  0  0  0  0
  137.5860  150.4677  153.5348 H   0  0  0  0  0  0  0  0  0  0  0  0
  138.9234  148.9907  151.6047 C   0  0  0  0  0  0  0  0  0  0  0  0
  139.3364  148.9181  150.2111 N   0  0  0  0  0  0  0  0  0  0  0  0
  138.9586  149.8551  149.3037 C   0  0  0  0  0  0  0  0  0  0  0  0
  138.4545  149.4030  148.1714 C   0  0  0  0  0  0  0  0  0  0  0  0
  138.4304  147.9749  147.9227 O   0  0  0  0  0  0  0  0  0  0  0  0
  139.4322  147.2801  148.7109 C   0  0  0  0  0  0  0  0  0  0  0  0
  140.0538  147.9180  149.6581 C   0  0  0  0  0  0  0  0  0  0  0  0
  135.1617  156.8209  160.9100 N   0  0  0  0  0  0  0  0  0  0  0  0
  135.7198  155.7216  160.2383 C   0  0  0  0  0  0  0  0  0  0  0  0
  136.2920  154.9090  160.7321 O   0  0  0  0  0  0  0  0  0  0  0  0
  134.6642  157.5061  160.4078 H   0  0  0  0  0  0  0  0  0  0  0  0
  136.7890  156.7766  162.6491 C   0  0  0  0  0  0  0  0  0  0  0  0
  135.3171  156.9409  162.3144 C   0  0  0  0  0  0  0  0  0  0  0  0
  134.5275  155.8087  162.9319 C   0  0  0  0  0  0  0  0  0  0  0  0
  134.7870  158.2547  162.8333 C   0  0  0  0  0  0  0  0  0  0  0  0
  134.2138  155.8419  152.6989 S   0  0  0  0  0  0  0  0  0  0  0  0
  132.9071  154.7709  152.1041 C   0  0  0  0  0  0  0  0  0  0  0  0
 38  3  1  0
 37 35  1  0
 15 14  2  0
 35 34  1  0
  3  2  1  0
 18 16  2  0
 19 23  1  0
 26 25  1  0
 19 21  2  0
  4  1  2  0
  8  3  2  0
  9  4  1  0
  8  4  1  0
 27 26  1  0
  7  1  1  0
  6 10  1  0
  9  5  1  0
 29 24  1  0
 20 14  1  0
  6  1  1  0
 19 20  1  0
 35 30  1  0
 17 13  2  0
  6  5  2  0
 27 28  1  0
  7  2  2  0
 31 30  1  0
 17 16  1  0
 18 15  1  0
 24 23  1  0
 13 14  1  0
  5 31  1  0
 25 24  1  0
 38 39  1  0
 35 36  1  0
  7 17  1  0
 32 31  2  0
 28 29  1  0
 30 33  1  0
 20 22  1  0
 10 11  1  0
 10 12  1  0
M  END
> <minimizedAffinity>
-8.31024

$$$$
55Z_Org43553


 39 42  0  0  0  0  0  0  0  0999 V2000
  137.7209  152.4490  153.2043 C   0  0  0  0  0  0  0  0  0  0  0  0
  136.6626  154.2833  154.1660 N   0  0  0  0  0  0  0  0  0  0  0  0
  135.7576  154.2643  153.2609 C   0  0  0  0  0  0  0  0  0  0  0  0
  136.6592  152.5098  152.2750 C   0  0  0  0  0  0  0  0  0  0  0  0
  138.3126  150.6962  151.8688 C   0  0  0  0  0  0  0  0  0  0  0  0
  138.5770  151.4104  152.8865 C   0  0  0  0  0  0  0  0  0  0  0  0
  137.6772  153.4142  154.1827 C   0  0  0  0  0  0  0  0  0  0  0  0
  135.7446  153.3885  152.3412 N   0  0  0  0  0  0  0  0  0  0  0  0
  136.9119  151.1811  151.1046 S   0  0  0  0  0  0  0  0  0  0  0  0
  139.7265  151.0693  153.6177 N   0  0  0  0  0  0  0  0  0  0  0  0
  139.9758  151.5909  154.4145 H   0  0  0  0  0  0  0  0  0  0  0  0
  140.2829  150.3086  153.3334 H   0  0  0  0  0  0  0  0  0  0  0  0
  137.9661  153.8533  156.5183 C   0  0  0  0  0  0  0  0  0  0  0  0
  138.5248  154.0302  157.6859 C   0  0  0  0  0  0  0  0  0  0  0  0
  139.8777  153.9109  157.7019 C   0  0  0  0  0  0  0  0  0  0  0  0
  140.0164  153.5001  155.3758 C   0  0  0  0  0  0  0  0  0  0  0  0
  138.6526  153.6147  155.3622 C   0  0  0  0  0  0  0  0  0  0  0  0
  140.6174  153.6812  156.5690 C   0  0  0  0  0  0  0  0  0  0  0  0
  136.3022  154.8649  158.7253 C   0  0  0  0  0  0  0  0  0  0  0  0
  137.6400  154.2908  158.8082 N   0  0  0  0  0  0  0  0  0  0  0  0
  135.8845  155.1550  157.6862 O   0  0  0  0  0  0  0  0  0  0  0  0
  137.9735  154.0592  159.7051 H   0  0  0  0  0  0  0  0  0  0  0  0
  135.4185  155.1088  159.9611 C   0  0  0  0  0  0  0  0  0  0  0  0
  135.6854  156.2732  160.7922 N   0  0  0  0  0  0  0  0  0  0  0  0
  136.7729  156.3388  161.6028 C   0  0  0  0  0  0  0  0  0  0  0  0
  136.5508  156.7032  162.8512 C   0  0  0  0  0  0  0  0  0  0  0  0
  135.2154  157.1034  163.2493 O   0  0  0  0  0  0  0  0  0  0  0  0
  134.4321  157.5505  162.1116 C   0  0  0  0  0  0  0  0  0  0  0  0
  134.8841  157.3526  160.9086 C   0  0  0  0  0  0  0  0  0  0  0  0
  138.5856  148.8550  150.2573 N   0  0  0  0  0  0  0  0  0  0  0  0
  139.0171  149.5261  151.4126 C   0  0  0  0  0  0  0  0  0  0  0  0
  139.8893  149.2205  152.0269 O   0  0  0  0  0  0  0  0  0  0  0  0
  137.8023  149.1828  149.7591 H   0  0  0  0  0  0  0  0  0  0  0  0
  139.8520  147.9926  148.4334 C   0  0  0  0  0  0  0  0  0  0  0  0
  139.2819  147.7033  149.8106 C   0  0  0  0  0  0  0  0  0  0  0  0
  138.2587  146.5942  149.7128 C   0  0  0  0  0  0  0  0  0  0  0  0
  140.3695  147.2902  150.7712 C   0  0  0  0  0  0  0  0  0  0  0  0
  134.4480  155.4150  153.3022 S   0  0  0  0  0  0  0  0  0  0  0  0
  132.9138  155.0440  152.4553 C   0  0  0  0  0  0  0  0  0  0  0  0
 38  3  1  0
 37 35  1  0
 15 14  2  0
 35 34  1  0
  3  2  1  0
 18 16  2  0
 19 23  1  0
 26 25  1  0
 19 21  2  0
  4  1  2  0
  8  3  2  0
  9  4  1  0
  8  4  1  0
 27 26  1  0
  7  1  1  0
  6 10  1  0
  9  5  1  0
 29 24  1  0
 20 14  1  0
  6  1  1  0
 19 20  1  0
 35 30  1  0
 17 13  2  0
  6  5  2  0
 27 28  1  0
  7  2  2  0
 31 30  1  0
 17 16  1  0
 18 15  1  0
 24 23  1  0
 13 14  1  0
  5 31  1  0
 25 24  1  0
 38 39  1  0
 35 36  1  0
  7 17  1  0
 32 31  2  0
 28 29  1  0
 30 33  1  0
 20 22  1  0
 10 11  1  0
 10 12  1  0
M  END
> <minimizedAffinity>
-8.04592

$$$$
55Z_Org43553


 39 42  0  0  0  0  0  0  0  0999 V2000
  136.0979  155.1326  156.8760 C   0  0  0  0  0  0  0  0  0  0  0  0
  136.3571  154.9473  154.5721 N   0  0  0  0  0  0  0  0  0  0  0  0
  135.2429  155.5461  154.3758 C   0  0  0  0  0  0  0  0  0  0  0  0
  134.9002  155.8008  156.5393 C   0  0  0  0  0  0  0  0  0  0  0  0
  135.3348  155.5822  158.9788 C   0  0  0  0  0  0  0  0  0  0  0  0
  136.2400  155.0669  158.2500 C   0  0  0  0  0  0  0  0  0  0  0  0
  136.8297  154.6969  155.7964 C   0  0  0  0  0  0  0  0  0  0  0  0
  134.5333  155.9781  155.3364 N   0  0  0  0  0  0  0  0  0  0  0  0
  134.1154  156.2735  158.0755 S   0  0  0  0  0  0  0  0  0  0  0  0
  137.3282  154.4779  158.9143 N   0  0  0  0  0  0  0  0  0  0  0  0
  138.0562  154.0648  158.3960 H   0  0  0  0  0  0  0  0  0  0  0  0
  137.3630  154.4781  159.8981 H   0  0  0  0  0  0  0  0  0  0  0  0
  138.1280  152.8278  155.0535 C   0  0  0  0  0  0  0  0  0  0  0  0
  139.1357  152.0215  154.8506 C   0  0  0  0  0  0  0  0  0  0  0  0
  140.3106  152.4153  155.4068 C   0  0  0  0  0  0  0  0  0  0  0  0
  139.3716  154.3618  156.3703 C   0  0  0  0  0  0  0  0  0  0  0  0
  138.1898  153.9668  155.8042 C   0  0  0  0  0  0  0  0  0  0  0  0
  140.4267  153.5448  156.1776 C   0  0  0  0  0  0  0  0  0  0  0  0
  139.4761  150.5650  152.7340 C   0  0  0  0  0  0  0  0  0  0  0  0
  138.8853  150.8438  154.0376 N   0  0  0  0  0  0  0  0  0  0  0  0
  140.2082  151.3362  152.2783 O   0  0  0  0  0  0  0  0  0  0  0  0
  138.2608  150.1741  154.3991 H   0  0  0  0  0  0  0  0  0  0  0  0
  139.1659  149.2900  151.9304 C   0  0  0  0  0  0  0  0  0  0  0  0
  140.2281  148.6867  151.1395 N   0  0  0  0  0  0  0  0  0  0  0  0
  140.0040  148.2072  149.8889 C   0  0  0  0  0  0  0  0  0  0  0  0
  140.4484  146.9901  149.6408 C   0  0  0  0  0  0  0  0  0  0  0  0
  141.2204  146.2941  150.6515 O   0  0  0  0  0  0  0  0  0  0  0  0
  141.8415  147.2217  151.5797 C   0  0  0  0  0  0  0  0  0  0  0  0
  141.4928  148.4742  151.5591 C   0  0  0  0  0  0  0  0  0  0  0  0
  135.3529  156.9664  161.0147 N   0  0  0  0  0  0  0  0  0  0  0  0
  135.3257  155.6976  160.4141 C   0  0  0  0  0  0  0  0  0  0  0  0
  135.2953  154.7393  160.9730 O   0  0  0  0  0  0  0  0  0  0  0  0
  135.3785  157.7768  160.4563 H   0  0  0  0  0  0  0  0  0  0  0  0
  136.7507  156.8208  162.9380 C   0  0  0  0  0  0  0  0  0  0  0  0
  135.3434  157.0765  162.4283 C   0  0  0  0  0  0  0  0  0  0  0  0
  134.4161  155.9957  162.9368 C   0  0  0  0  0  0  0  0  0  0  0  0
  134.8365  158.4208  162.8889 C   0  0  0  0  0  0  0  0  0  0  0  0
  134.6867  155.8595  152.7531 S   0  0  0  0  0  0  0  0  0  0  0  0
  133.3131  154.9211  152.0890 C   0  0  0  0  0  0  0  0  0  0  0  0
 38  3  1  0
 37 35  1  0
 15 14  2  0
 35 34  1  0
  3  2  1  0
 18 16  2  0
 19 23  1  0
 26 25  1  0
 19 21  2  0
  4  1  2  0
  8  3  2  0
  9  4  1  0
  8  4  1  0
 27 26  1  0
  7  1  1  0
  6 10  1  0
  9  5  1  0
 29 24  1  0
 20 14  1  0
  6  1  1  0
 19 20  1  0
 35 30  1  0
 17 13  2  0
  6  5  2  0
 27 28  1  0
  7  2  2  0
 31 30  1  0
 17 16  1  0
 18 15  1  0
 24 23  1  0
 13 14  1  0
  5 31  1  0
 25 24  1  0
 38 39  1  0
 35 36  1  0
  7 17  1  0
 32 31  2  0
 28 29  1  0
 30 33  1  0
 20 22  1  0
 10 11  1  0
 10 12  1  0
M  END
> <minimizedAffinity>
-8.04312

$$$$
55Z_Org43553


 39 42  0  0  0  0  0  0  0  0999 V2000
  135.8931  155.4918  157.0115 C   0  0  0  0  0  0  0  0  0  0  0  0
  136.3759  154.8875  154.8181 N   0  0  0  0  0  0  0  0  0  0  0  0
  135.2925  155.4306  154.4061 C   0  0  0  0  0  0  0  0  0  0  0  0
  134.7411  156.0766  156.4412 C   0  0  0  0  0  0  0  0  0  0  0  0
  134.9314  156.3147  158.9100 C   0  0  0  0  0  0  0  0  0  0  0  0
  135.8986  155.6815  158.3814 C   0  0  0  0  0  0  0  0  0  0  0  0
  136.7232  154.8708  156.1081 C   0  0  0  0  0  0  0  0  0  0  0  0
  134.4962  156.0263  155.1960 N   0  0  0  0  0  0  0  0  0  0  0  0
  133.8138  156.8177  157.7791 S   0  0  0  0  0  0  0  0  0  0  0  0
  136.9102  155.2339  159.2467 N   0  0  0  0  0  0  0  0  0  0  0  0
  137.6815  154.7384  158.8876 H   0  0  0  0  0  0  0  0  0  0  0  0
  136.8480  155.4156  160.2122 H   0  0  0  0  0  0  0  0  0  0  0  0
  138.5136  153.5244  155.2640 C   0  0  0  0  0  0  0  0  0  0  0  0
  139.6406  152.8680  155.1874 C   0  0  0  0  0  0  0  0  0  0  0  0
  140.4032  152.8984  156.3110 C   0  0  0  0  0  0  0  0  0  0  0  0
  138.8330  154.1923  157.5191 C   0  0  0  0  0  0  0  0  0  0  0  0
  138.0684  154.1658  156.3842 C   0  0  0  0  0  0  0  0  0  0  0  0
  140.0003  153.5197  157.4665 C   0  0  0  0  0  0  0  0  0  0  0  0
  139.5796  150.8731  153.5340 C   0  0  0  0  0  0  0  0  0  0  0  0
  139.9482  152.2304  153.9188 N   0  0  0  0  0  0  0  0  0  0  0  0
  138.9955  150.2198  154.2892 O   0  0  0  0  0  0  0  0  0  0  0  0
  140.4505  152.7623  153.2600 H   0  0  0  0  0  0  0  0  0  0  0  0
  139.9375  150.2650  152.1666 C   0  0  0  0  0  0  0  0  0  0  0  0
  138.8600  149.8098  151.3008 N   0  0  0  0  0  0  0  0  0  0  0  0
  138.8115  148.5375  150.8285 C   0  0  0  0  0  0  0  0  0  0  0  0
  138.6088  148.4023  149.5319 C   0  0  0  0  0  0  0  0  0  0  0  0
  138.3515  149.5789  148.7249 O   0  0  0  0  0  0  0  0  0  0  0  0
  137.8333  150.6721  149.5273 C   0  0  0  0  0  0  0  0  0  0  0  0
  137.8600  150.5800  150.8240 C   0  0  0  0  0  0  0  0  0  0  0  0
  135.7465  156.2987  161.2330 N   0  0  0  0  0  0  0  0  0  0  0  0
  134.7823  156.6924  160.2915 C   0  0  0  0  0  0  0  0  0  0  0  0
  133.8810  157.2942  160.5305 O   0  0  0  0  0  0  0  0  0  0  0  0
  136.5238  155.7648  160.9503 H   0  0  0  0  0  0  0  0  0  0  0  0
  134.6533  155.6874  163.2592 C   0  0  0  0  0  0  0  0  0  0  0  0
  135.5969  156.6727  162.5926 C   0  0  0  0  0  0  0  0  0  0  0  0
  134.9737  158.0505  162.5926 C   0  0  0  0  0  0  0  0  0  0  0  0
  136.9205  156.7281  163.3144 C   0  0  0  0  0  0  0  0  0  0  0  0
  134.9018  155.4352  152.7066 S   0  0  0  0  0  0  0  0  0  0  0  0
  133.2596  154.9597  152.1723 C   0  0  0  0  0  0  0  0  0  0  0  0
 38  3  1  0
 37 35  1  0
 15 14  2  0
 35 34  1  0
  3  2  1  0
 18 16  2  0
 19 23  1  0
 26 25  1  0
 19 21  2  0
  4  1  2  0
  8  3  2  0
  9  4  1  0
  8  4  1  0
 27 26  1  0
  7  1  1  0
  6 10  1  0
  9  5  1  0
 29 24  1  0
 20 14  1  0
  6  1  1  0
 19 20  1  0
 35 30  1  0
 17 13  2  0
  6  5  2  0
 27 28  1  0
  7  2  2  0
 31 30  1  0
 17 16  1  0
 18 15  1  0
 24 23  1  0
 13 14  1  0
  5 31  1  0
 25 24  1  0
 38 39  1  0
 35 36  1  0
  7 17  1  0
 32 31  2  0
 28 29  1  0
 30 33  1  0
 20 22  1  0
 10 11  1  0
 10 12  1  0
M  END
> <minimizedAffinity>
-7.94188

$$$$
55Z_Org43553


 39 42  0  0  0  0  0  0  0  0999 V2000
  136.0021  156.3605  160.3191 C   0  0  0  0  0  0  0  0  0  0  0  0
  137.6899  155.0447  159.4085 N   0  0  0  0  0  0  0  0  0  0  0  0
  138.2828  154.9813  160.5412 C   0  0  0  0  0  0  0  0  0  0  0  0
  136.7288  156.2024  161.5197 C   0  0  0  0  0  0  0  0  0  0  0  0
  134.6709  157.5871  161.7083 C   0  0  0  0  0  0  0  0  0  0  0  0
  134.8830  157.1436  160.5360 C   0  0  0  0  0  0  0  0  0  0  0  0
  136.5576  155.7309  159.2301 C   0  0  0  0  0  0  0  0  0  0  0  0
  137.8077  155.5351  161.5807 N   0  0  0  0  0  0  0  0  0  0  0  0
  135.8396  157.0932  162.7905 S   0  0  0  0  0  0  0  0  0  0  0  0
  133.9410  157.4826  159.5511 N   0  0  0  0  0  0  0  0  0  0  0  0
  134.0589  157.1643  158.6269 H   0  0  0  0  0  0  0  0  0  0  0  0
  133.1628  158.0384  159.7848 H   0  0  0  0  0  0  0  0  0  0  0  0
  136.8046  154.8821  157.0054 C   0  0  0  0  0  0  0  0  0  0  0  0
  136.5743  154.6210  155.7461 C   0  0  0  0  0  0  0  0  0  0  0  0
  135.4323  155.1590  155.2451 C   0  0  0  0  0  0  0  0  0  0  0  0
  134.8645  156.2211  157.2819 C   0  0  0  0  0  0  0  0  0  0  0  0
  136.0125  155.6735  157.7870 C   0  0  0  0  0  0  0  0  0  0  0  0
  134.6055  155.9685  155.9830 C   0  0  0  0  0  0  0  0  0  0  0  0
  138.9598  153.6863  155.3545 C   0  0  0  0  0  0  0  0  0  0  0  0
  137.5338  153.7712  155.0621 N   0  0  0  0  0  0  0  0  0  0  0  0
  139.3955  154.3487  156.1970 O   0  0  0  0  0  0  0  0  0  0  0  0
  137.1904  153.2017  154.3362 H   0  0  0  0  0  0  0  0  0  0  0  0
  139.9170  152.7569  154.5881 C   0  0  0  0  0  0  0  0  0  0  0  0
  139.4460  151.4362  154.1986 N   0  0  0  0  0  0  0  0  0  0  0  0
  140.0602  150.7167  153.2244 C   0  0  0  0  0  0  0  0  0  0  0  0
  139.2783  150.2089  152.2910 C   0  0  0  0  0  0  0  0  0  0  0  0
  137.8406  150.3529  152.4107 O   0  0  0  0  0  0  0  0  0  0  0  0
  137.4400  150.5693  153.7892 C   0  0  0  0  0  0  0  0  0  0  0  0
  138.3479  150.8214  154.6852 C   0  0  0  0  0  0  0  0  0  0  0  0
  133.7230  159.4497  163.0095 N   0  0  0  0  0  0  0  0  0  0  0  0
  133.5341  158.3428  162.1667 C   0  0  0  0  0  0  0  0  0  0  0  0
  132.5454  157.9879  161.8089 O   0  0  0  0  0  0  0  0  0  0  0  0
  134.6309  159.7096  163.2876 H   0  0  0  0  0  0  0  0  0  0  0  0
  132.2958  161.2671  162.4311 C   0  0  0  0  0  0  0  0  0  0  0  0
  132.6014  160.1920  163.4588 C   0  0  0  0  0  0  0  0  0  0  0  0
  133.0095  160.8391  164.7631 C   0  0  0  0  0  0  0  0  0  0  0  0
  131.3985  159.3131  163.6973 C   0  0  0  0  0  0  0  0  0  0  0  0
  139.7500  154.0552  160.7155 S   0  0  0  0  0  0  0  0  0  0  0  0
  140.2517  153.4845  162.3376 C   0  0  0  0  0  0  0  0  0  0  0  0
 38  3  1  0
 37 35  1  0
 15 14  2  0
 35 34  1  0
  3  2  1  0
 18 16  2  0
 19 23  1  0
 26 25  1  0
 19 21  2  0
  4  1  2  0
  8  3  2  0
  9  4  1  0
  8  4  1  0
 27 26  1  0
  7  1  1  0
  6 10  1  0
  9  5  1  0
 29 24  1  0
 20 14  1  0
  6  1  1  0
 19 20  1  0
 35 30  1  0
 17 13  2  0
  6  5  2  0
 27 28  1  0
  7  2  2  0
 31 30  1  0
 17 16  1  0
 18 15  1  0
 24 23  1  0
 13 14  1  0
  5 31  1  0
 25 24  1  0
 38 39  1  0
 35 36  1  0
  7 17  1  0
 32 31  2  0
 28 29  1  0
 30 33  1  0
 20 22  1  0
 10 11  1  0
 10 12  1  0
M  END
> <minimizedAffinity>
-7.27949

$$$$
55Z_Org43553


 39 42  0  0  0  0  0  0  0  0999 V2000
  135.7077  156.0270  158.4828 C   0  0  0  0  0  0  0  0  0  0  0  0
  135.9250  156.3632  160.7739 N   0  0  0  0  0  0  0  0  0  0  0  0
  134.8129  156.9960  160.8095 C   0  0  0  0  0  0  0  0  0  0  0  0
  134.4873  156.7187  158.6461 C   0  0  0  0  0  0  0  0  0  0  0  0
  134.9890  156.0024  156.3173 C   0  0  0  0  0  0  0  0  0  0  0  0
  135.8865  155.6772  157.1568 C   0  0  0  0  0  0  0  0  0  0  0  0
  136.4326  155.8700  159.6407 C   0  0  0  0  0  0  0  0  0  0  0  0
  134.0990  157.1599  159.7719 N   0  0  0  0  0  0  0  0  0  0  0  0
  133.7182  156.8102  157.0338 S   0  0  0  0  0  0  0  0  0  0  0  0
  136.9923  154.9692  156.6586 N   0  0  0  0  0  0  0  0  0  0  0  0
  137.7153  154.6936  157.2674 H   0  0  0  0  0  0  0  0  0  0  0  0
  137.0445  154.7483  155.7007 H   0  0  0  0  0  0  0  0  0  0  0  0
  138.1099  154.4467  158.6964 C   0  0  0  0  0  0  0  0  0  0  0  0
  139.2109  153.7595  158.5467 C   0  0  0  0  0  0  0  0  0  0  0  0
  140.0721  153.8143  159.5956 C   0  0  0  0  0  0  0  0  0  0  0  0
  138.6457  155.1938  160.8846 C   0  0  0  0  0  0  0  0  0  0  0  0
  137.7816  155.1425  159.8245 C   0  0  0  0  0  0  0  0  0  0  0  0
  139.7887  154.4903  160.7559 C   0  0  0  0  0  0  0  0  0  0  0  0
  139.7996  153.6756  156.0241 C   0  0  0  0  0  0  0  0  0  0  0  0
  139.3889  153.0652  157.2831 N   0  0  0  0  0  0  0  0  0  0  0  0
  140.0020  154.8143  155.9976 O   0  0  0  0  0  0  0  0  0  0  0  0
  139.2168  152.0959  157.2761 H   0  0  0  0  0  0  0  0  0  0  0  0
  139.9719  152.8733  154.7225 C   0  0  0  0  0  0  0  0  0  0  0  0
  139.0195  151.8144  154.4231 N   0  0  0  0  0  0  0  0  0  0  0  0
  139.4246  150.5625  154.0871 C   0  0  0  0  0  0  0  0  0  0  0  0
  138.8730  150.0388  153.0091 C   0  0  0  0  0  0  0  0  0  0  0  0
  137.8203  150.7633  152.3244 O   0  0  0  0  0  0  0  0  0  0  0  0
  137.1599  151.7059  153.2094 C   0  0  0  0  0  0  0  0  0  0  0  0
  137.6787  151.9576  154.3748 C   0  0  0  0  0  0  0  0  0  0  0  0
  133.9750  154.7564  154.4517 N   0  0  0  0  0  0  0  0  0  0  0  0
  134.9360  155.6678  154.9178 C   0  0  0  0  0  0  0  0  0  0  0  0
  135.6861  156.1726  154.2743 O   0  0  0  0  0  0  0  0  0  0  0  0
  133.3380  154.3458  155.0800 H   0  0  0  0  0  0  0  0  0  0  0  0
  132.7309  155.1356  152.4561 C   0  0  0  0  0  0  0  0  0  0  0  0
  133.9253  154.4295  153.0728 C   0  0  0  0  0  0  0  0  0  0  0  0
  133.7254  152.9326  152.9937 C   0  0  0  0  0  0  0  0  0  0  0  0
  135.2012  154.7971  152.3565 C   0  0  0  0  0  0  0  0  0  0  0  0
  134.1936  157.6018  162.3228 S   0  0  0  0  0  0  0  0  0  0  0  0
  132.5245  158.2469  162.4040 C   0  0  0  0  0  0  0  0  0  0  0  0
 38  3  1  0
 37 35  1  0
 15 14  2  0
 35 34  1  0
  3  2  1  0
 18 16  2  0
 19 23  1  0
 26 25  1  0
 19 21  2  0
  4  1  2  0
  8  3  2  0
  9  4  1  0
  8  4  1  0
 27 26  1  0
  7  1  1  0
  6 10  1  0
  9  5  1  0
 29 24  1  0
 20 14  1  0
  6  1  1  0
 19 20  1  0
 35 30  1  0
 17 13  2  0
  6  5  2  0
 27 28  1  0
  7  2  2  0
 31 30  1  0
 17 16  1  0
 18 15  1  0
 24 23  1  0
 13 14  1  0
  5 31  1  0
 25 24  1  0
 38 39  1  0
 35 36  1  0
  7 17  1  0
 32 31  2  0
 28 29  1  0
 30 33  1  0
 20 22  1  0
 10 11  1  0
 10 12  1  0
M  END
> <minimizedAffinity>
-7.08834

$$$$
55Z_Org43553


 39 42  0  0  0  0  0  0  0  0999 V2000
  138.4754  152.5330  154.1347 C   0  0  0  0  0  0  0  0  0  0  0  0
  138.3974  153.9942  155.9424 N   0  0  0  0  0  0  0  0  0  0  0  0
  139.4185  153.4314  156.4706 C   0  0  0  0  0  0  0  0  0  0  0  0
  139.6061  152.0070  154.7974 C   0  0  0  0  0  0  0  0  0  0  0  0
  139.0190  150.8795  152.6593 C   0  0  0  0  0  0  0  0  0  0  0  0
  138.2393  151.8363  152.9636 C   0  0  0  0  0  0  0  0  0  0  0  0
  137.8698  153.5814  154.7865 C   0  0  0  0  0  0  0  0  0  0  0  0
  140.0219  152.4669  155.9059 N   0  0  0  0  0  0  0  0  0  0  0  0
  140.2282  150.6679  153.7880 S   0  0  0  0  0  0  0  0  0  0  0  0
  137.1977  152.1145  152.0636 N   0  0  0  0  0  0  0  0  0  0  0  0
  136.5660  152.8456  152.2526 H   0  0  0  0  0  0  0  0  0  0  0  0
  137.0992  151.5784  151.2438 H   0  0  0  0  0  0  0  0  0  0  0  0
  136.2197  155.2280  155.3313 C   0  0  0  0  0  0  0  0  0  0  0  0
  135.2211  156.0638  155.2254 C   0  0  0  0  0  0  0  0  0  0  0  0
  134.6320  156.1065  154.0023 C   0  0  0  0  0  0  0  0  0  0  0  0
  136.0474  154.4389  153.0995 C   0  0  0  0  0  0  0  0  0  0  0  0
  136.6438  154.4012  154.3307 C   0  0  0  0  0  0  0  0  0  0  0  0
  135.0119  155.2920  152.9651 C   0  0  0  0  0  0  0  0  0  0  0  0
  134.4164  156.3360  157.6740 C   0  0  0  0  0  0  0  0  0  0  0  0
  134.8962  156.8560  156.3990 N   0  0  0  0  0  0  0  0  0  0  0  0
  134.2649  155.1948  157.7880 O   0  0  0  0  0  0  0  0  0  0  0  0
  135.0101  157.8312  156.3270 H   0  0  0  0  0  0  0  0  0  0  0  0
  134.0959  157.2386  158.8782 C   0  0  0  0  0  0  0  0  0  0  0  0
  134.9562  157.1719  160.0501 N   0  0  0  0  0  0  0  0  0  0  0  0
  136.1472  156.5199  160.0264 C   0  0  0  0  0  0  0  0  0  0  0  0
  136.3691  155.6714  161.0120 C   0  0  0  0  0  0  0  0  0  0  0  0
  135.4050  155.5634  162.0894 O   0  0  0  0  0  0  0  0  0  0  0  0
  134.6010  156.7665  162.2070 C   0  0  0  0  0  0  0  0  0  0  0  0
  134.6578  157.6659  161.2697 C   0  0  0  0  0  0  0  0  0  0  0  0
  139.0800  150.7122  150.2038 N   0  0  0  0  0  0  0  0  0  0  0  0
  139.0044  150.0857  151.4579 C   0  0  0  0  0  0  0  0  0  0  0  0
  138.9329  148.9884  151.6080 O   0  0  0  0  0  0  0  0  0  0  0  0
  139.1427  151.6930  150.1445 H   0  0  0  0  0  0  0  0  0  0  0  0
  138.8777  150.8540  147.8346 C   0  0  0  0  0  0  0  0  0  0  0  0
  139.0659  149.9276  149.0228 C   0  0  0  0  0  0  0  0  0  0  0  0
  137.8758  149.0017  149.1369 C   0  0  0  0  0  0  0  0  0  0  0  0
  140.3213  149.1041  148.8741 C   0  0  0  0  0  0  0  0  0  0  0  0
  140.0720  154.0268  157.9736 S   0  0  0  0  0  0  0  0  0  0  0  0
  139.0820  153.9492  159.4643 C   0  0  0  0  0  0  0  0  0  0  0  0
 38  3  1  0
 37 35  1  0
 15 14  2  0
 35 34  1  0
  3  2  1  0
 18 16  2  0
 19 23  1  0
 26 25  1  0
 19 21  2  0
  4  1  2  0
  8  3  2  0
  9  4  1  0
  8  4  1  0
 27 26  1  0
  7  1  1  0
  6 10  1  0
  9  5  1  0
 29 24  1  0
 20 14  1  0
  6  1  1  0
 19 20  1  0
 35 30  1  0
 17 13  2  0
  6  5  2  0
 27 28  1  0
  7  2  2  0
 31 30  1  0
 17 16  1  0
 18 15  1  0
 24 23  1  0
 13 14  1  0
  5 31  1  0
 25 24  1  0
 38 39  1  0
 35 36  1  0
  7 17  1  0
 32 31  2  0
 28 29  1  0
 30 33  1  0
 20 22  1  0
 10 11  1  0
 10 12  1  0
M  END
> <minimizedAffinity>
-7.08405

$$$$
