55Z_Org43553


 39 42  0  0  0  0  0  0  0  0999 V2000
  138.2747  152.0314  153.1147 C   0  0  0  0  0  0  0  0  0  0  0  0
  138.3060  153.6617  154.7732 N   0  0  0  0  0  0  0  0  0  0  0  0
  139.3487  153.1383  155.2997 C   0  0  0  0  0  0  0  0  0  0  0  0
  139.4344  151.5563  153.7657 C   0  0  0  0  0  0  0  0  0  0  0  0
  138.7243  150.2355  151.7810 C   0  0  0  0  0  0  0  0  0  0  0  0
  137.9705  151.2281  152.0309 C   0  0  0  0  0  0  0  0  0  0  0  0
  137.7140  153.1464  153.6920 C   0  0  0  0  0  0  0  0  0  0  0  0
  139.9126  152.1154  154.8010 N   0  0  0  0  0  0  0  0  0  0  0  0
  139.9899  150.1172  152.8605 S   0  0  0  0  0  0  0  0  0  0  0  0
  136.8849  151.4325  151.1637 N   0  0  0  0  0  0  0  0  0  0  0  0
  136.2708  152.1872  151.3132 H   0  0  0  0  0  0  0  0  0  0  0  0
  136.7382  150.8210  150.4061 H   0  0  0  0  0  0  0  0  0  0  0  0
  135.9265  154.6335  154.2618 C   0  0  0  0  0  0  0  0  0  0  0  0
  134.8860  155.4168  154.1590 C   0  0  0  0  0  0  0  0  0  0  0  0
  134.3832  155.5462  152.9039 C   0  0  0  0  0  0  0  0  0  0  0  0
  135.9636  154.0602  151.9589 C   0  0  0  0  0  0  0  0  0  0  0  0
  136.4728  153.9354  153.2231 C   0  0  0  0  0  0  0  0  0  0  0  0
  134.8873  154.8613  151.8267 C   0  0  0  0  0  0  0  0  0  0  0  0
  135.2301  156.3088  156.5680 C   0  0  0  0  0  0  0  0  0  0  0  0
  134.4285  156.0693  155.3737 N   0  0  0  0  0  0  0  0  0  0  0  0
  136.3305  155.9519  156.5805 O   0  0  0  0  0  0  0  0  0  0  0  0
  133.4936  156.3772  155.3923 H   0  0  0  0  0  0  0  0  0  0  0  0
  134.6768  157.0123  157.8196 C   0  0  0  0  0  0  0  0  0  0  0  0
  134.9121  156.4079  159.1224 N   0  0  0  0  0  0  0  0  0  0  0  0
  135.2570  157.1526  160.2042 C   0  0  0  0  0  0  0  0  0  0  0  0
  136.2974  156.7307  160.8972 C   0  0  0  0  0  0  0  0  0  0  0  0
  136.9303  155.4765  160.5390 O   0  0  0  0  0  0  0  0  0  0  0  0
  136.0198  154.6086  159.8141 C   0  0  0  0  0  0  0  0  0  0  0  0
  134.8877  155.0852  159.3879 C   0  0  0  0  0  0  0  0  0  0  0  0
  139.4683  148.1978  150.6168 N   0  0  0  0  0  0  0  0  0  0  0  0
  138.6387  149.3295  150.6650 C   0  0  0  0  0  0  0  0  0  0  0  0
  137.8931  149.5946  149.8870 O   0  0  0  0  0  0  0  0  0  0  0  0
  140.1083  148.0231  151.3442 H   0  0  0  0  0  0  0  0  0  0  0  0
  138.1576  146.4289  149.7073 C   0  0  0  0  0  0  0  0  0  0  0  0
  139.3812  147.3074  149.5166 C   0  0  0  0  0  0  0  0  0  0  0  0
  140.6289  146.4539  149.5555 C   0  0  0  0  0  0  0  0  0  0  0  0
  139.3227  148.0389  148.1984 C   0  0  0  0  0  0  0  0  0  0  0  0
  140.0866  153.8672  156.7016 S   0  0  0  0  0  0  0  0  0  0  0  0
  139.2811  153.7385  158.2963 C   0  0  0  0  0  0  0  0  0  0  0  0
 38  3  1  0
 37 35  1  0
 15 14  2  0
 35 34  1  0
  3  2  1  0
 18 16  2  0
 19 23  1  0
 26 25  1  0
 19 21  2  0
  4  1  2  0
  8  3  2  0
  9  4  1  0
  8  4  1  0
 27 26  1  0
  7  1  1  0
  6 10  1  0
  9  5  1  0
 29 24  1  0
 20 14  1  0
  6  1  1  0
 19 20  1  0
 35 30  1  0
 17 13  2  0
  6  5  2  0
 27 28  1  0
  7  2  2  0
 31 30  1  0
 17 16  1  0
 18 15  1  0
 24 23  1  0
 13 14  1  0
  5 31  1  0
 25 24  1  0
 38 39  1  0
 35 36  1  0
  7 17  1  0
 32 31  2  0
 28 29  1  0
 30 33  1  0
 20 22  1  0
 10 11  1  0
 10 12  1  0
M  END
> <minimizedAffinity>
-9.97898

> <minimizedRMSD>
1.31699

$$$$
55Z_Org43553


 39 42  0  0  0  0  0  0  0  0999 V2000
  136.1547  155.2544  156.5987 C   0  0  0  0  0  0  0  0  0  0  0  0
  136.0935  155.0205  154.2855 N   0  0  0  0  0  0  0  0  0  0  0  0
  134.9942  155.6735  154.2258 C   0  0  0  0  0  0  0  0  0  0  0  0
  134.9573  155.9790  156.4095 C   0  0  0  0  0  0  0  0  0  0  0  0
  135.7034  155.7754  158.7738 C   0  0  0  0  0  0  0  0  0  0  0  0
  136.4760  155.2024  157.9427 C   0  0  0  0  0  0  0  0  0  0  0  0
  136.7128  154.7646  155.4413 C   0  0  0  0  0  0  0  0  0  0  0  0
  134.4420  156.1567  155.2624 N   0  0  0  0  0  0  0  0  0  0  0  0
  134.4098  156.5155  158.0255 S   0  0  0  0  0  0  0  0  0  0  0  0
  137.6127  154.5677  158.4693 N   0  0  0  0  0  0  0  0  0  0  0  0
  138.2434  154.1092  157.8681 H   0  0  0  0  0  0  0  0  0  0  0  0
  137.7790  154.5811  159.4396 H   0  0  0  0  0  0  0  0  0  0  0  0
  137.8632  152.9511  154.3835 C   0  0  0  0  0  0  0  0  0  0  0  0
  138.8102  152.1263  154.0233 C   0  0  0  0  0  0  0  0  0  0  0  0
  140.0269  152.3683  154.5762 C   0  0  0  0  0  0  0  0  0  0  0  0
  139.2477  154.2060  155.8470 C   0  0  0  0  0  0  0  0  0  0  0  0
  138.0236  153.9646  155.2845 C   0  0  0  0  0  0  0  0  0  0  0  0
  140.2417  153.3665  155.4932 C   0  0  0  0  0  0  0  0  0  0  0  0
  139.3484  150.0570  152.5585 C   0  0  0  0  0  0  0  0  0  0  0  0
  138.4568  151.0943  153.0638 N   0  0  0  0  0  0  0  0  0  0  0  0
  140.4430  150.0334  152.9324 O   0  0  0  0  0  0  0  0  0  0  0  0
  137.5327  151.0954  152.7243 H   0  0  0  0  0  0  0  0  0  0  0  0
  138.9010  148.9912  151.5430 C   0  0  0  0  0  0  0  0  0  0  0  0
  139.3055  149.1373  150.1527 N   0  0  0  0  0  0  0  0  0  0  0  0
  138.9431  150.2164  149.4123 C   0  0  0  0  0  0  0  0  0  0  0  0
  138.4240  149.9642  148.2260 C   0  0  0  0  0  0  0  0  0  0  0  0
  138.3685  148.5961  147.7493 O   0  0  0  0  0  0  0  0  0  0  0  0
  139.3593  147.7627  148.4061 C   0  0  0  0  0  0  0  0  0  0  0  0
  139.9989  148.2260  149.4390 C   0  0  0  0  0  0  0  0  0  0  0  0
  135.0771  156.7904  160.9276 N   0  0  0  0  0  0  0  0  0  0  0  0
  135.8923  155.9131  160.1947 C   0  0  0  0  0  0  0  0  0  0  0  0
  136.7000  155.2920  160.6344 O   0  0  0  0  0  0  0  0  0  0  0  0
  134.3771  157.3114  160.4717 H   0  0  0  0  0  0  0  0  0  0  0  0
  136.7519  156.8255  162.6211 C   0  0  0  0  0  0  0  0  0  0  0  0
  135.2655  156.9233  162.3267 C   0  0  0  0  0  0  0  0  0  0  0  0
  134.5440  155.7601  162.9694 C   0  0  0  0  0  0  0  0  0  0  0  0
  134.6924  158.2147  162.8558 C   0  0  0  0  0  0  0  0  0  0  0  0
  134.2420  155.9906  152.6849 S   0  0  0  0  0  0  0  0  0  0  0  0
  132.9057  154.9416  152.1171 C   0  0  0  0  0  0  0  0  0  0  0  0
 38  3  1  0
 37 35  1  0
 15 14  2  0
 35 34  1  0
  3  2  1  0
 18 16  2  0
 19 23  1  0
 26 25  1  0
 19 21  2  0
  4  1  2  0
  8  3  2  0
  9  4  1  0
  8  4  1  0
 27 26  1  0
  7  1  1  0
  6 10  1  0
  9  5  1  0
 29 24  1  0
 20 14  1  0
  6  1  1  0
 19 20  1  0
 35 30  1  0
 17 13  2  0
  6  5  2  0
 27 28  1  0
  7  2  2  0
 31 30  1  0
 17 16  1  0
 18 15  1  0
 24 23  1  0
 13 14  1  0
  5 31  1  0
 25 24  1  0
 38 39  1  0
 35 36  1  0
  7 17  1  0
 32 31  2  0
 28 29  1  0
 30 33  1  0
 20 22  1  0
 10 11  1  0
 10 12  1  0
M  END
> <minimizedAffinity>
-10.45377

$$$$
55Z_Org43553


 39 42  0  0  0  0  0  0  0  0999 V2000
  138.1806  152.0548  153.3098 C   0  0  0  0  0  0  0  0  0  0  0  0
  138.2131  153.6337  155.0172 N   0  0  0  0  0  0  0  0  0  0  0  0
  139.2575  153.0958  155.5255 C   0  0  0  0  0  0  0  0  0  0  0  0
  139.3421  151.5615  153.9437 C   0  0  0  0  0  0  0  0  0  0  0  0
  138.6298  150.3010  151.9210 C   0  0  0  0  0  0  0  0  0  0  0  0
  137.8752  151.2845  152.2025 C   0  0  0  0  0  0  0  0  0  0  0  0
  137.6196  153.1508  153.9220 C   0  0  0  0  0  0  0  0  0  0  0  0
  139.8217  152.0894  154.9947 N   0  0  0  0  0  0  0  0  0  0  0  0
  139.8977  150.1514  152.9939 S   0  0  0  0  0  0  0  0  0  0  0  0
  136.7877  151.5139  151.3440 N   0  0  0  0  0  0  0  0  0  0  0  0
  136.1729  152.2629  151.5177 H   0  0  0  0  0  0  0  0  0  0  0  0
  136.6402  150.9257  150.5685 H   0  0  0  0  0  0  0  0  0  0  0  0
  135.9677  154.7929  154.4751 C   0  0  0  0  0  0  0  0  0  0  0  0
  134.9597  155.6182  154.3772 C   0  0  0  0  0  0  0  0  0  0  0  0
  134.3429  155.6343  153.1671 C   0  0  0  0  0  0  0  0  0  0  0  0
  135.7523  153.9631  152.2618 C   0  0  0  0  0  0  0  0  0  0  0  0
  136.3765  153.9522  153.4798 C   0  0  0  0  0  0  0  0  0  0  0  0
  134.7066  154.8048  152.1361 C   0  0  0  0  0  0  0  0  0  0  0  0
  135.2637  156.2917  156.8614 C   0  0  0  0  0  0  0  0  0  0  0  0
  134.6543  156.4283  155.5438 N   0  0  0  0  0  0  0  0  0  0  0  0
  136.0600  155.4682  157.0236 O   0  0  0  0  0  0  0  0  0  0  0  0
  133.9750  157.1326  155.4350 H   0  0  0  0  0  0  0  0  0  0  0  0
  134.8917  157.1918  158.0526 C   0  0  0  0  0  0  0  0  0  0  0  0
  134.9415  156.6310  159.3945 N   0  0  0  0  0  0  0  0  0  0  0  0
  134.3607  157.2546  160.4519 C   0  0  0  0  0  0  0  0  0  0  0  0
  135.1085  157.3980  161.5293 C   0  0  0  0  0  0  0  0  0  0  0  0
  136.4319  156.8068  161.5613 O   0  0  0  0  0  0  0  0  0  0  0  0
  136.5454  155.7042  160.6238 C   0  0  0  0  0  0  0  0  0  0  0  0
  135.6019  155.5096  159.7507 C   0  0  0  0  0  0  0  0  0  0  0  0
  139.2279  148.2037  150.7788 N   0  0  0  0  0  0  0  0  0  0  0  0
  138.5432  149.4294  150.7780 C   0  0  0  0  0  0  0  0  0  0  0  0
  137.9158  149.7972  149.9398 O   0  0  0  0  0  0  0  0  0  0  0  0
  139.7670  147.9395  151.5590 H   0  0  0  0  0  0  0  0  0  0  0  0
  137.9700  146.4022  149.8586 C   0  0  0  0  0  0  0  0  0  0  0  0
  139.1401  147.3475  149.6518 C   0  0  0  0  0  0  0  0  0  0  0  0
  140.4289  146.5575  149.6117 C   0  0  0  0  0  0  0  0  0  0  0  0
  138.9921  148.1191  148.3638 C   0  0  0  0  0  0  0  0  0  0  0  0
  139.9972  153.7825  156.9475 S   0  0  0  0  0  0  0  0  0  0  0  0
  139.0217  154.0125  158.4321 C   0  0  0  0  0  0  0  0  0  0  0  0
 38  3  1  0
 37 35  1  0
 15 14  2  0
 35 34  1  0
  3  2  1  0
 18 16  2  0
 19 23  1  0
 26 25  1  0
 19 21  2  0
  4  1  2  0
  8  3  2  0
  9  4  1  0
  8  4  1  0
 27 26  1  0
  7  1  1  0
  6 10  1  0
  9  5  1  0
 29 24  1  0
 20 14  1  0
  6  1  1  0
 19 20  1  0
 35 30  1  0
 17 13  2  0
  6  5  2  0
 27 28  1  0
  7  2  2  0
 31 30  1  0
 17 16  1  0
 18 15  1  0
 24 23  1  0
 13 14  1  0
  5 31  1  0
 25 24  1  0
 38 39  1  0
 35 36  1  0
  7 17  1  0
 32 31  2  0
 28 29  1  0
 30 33  1  0
 20 22  1  0
 10 11  1  0
 10 12  1  0
M  END
> <minimizedAffinity>
-10.34790

$$$$
55Z_Org43553


 39 42  0  0  0  0  0  0  0  0999 V2000
  137.7311  152.4992  153.1497 C   0  0  0  0  0  0  0  0  0  0  0  0
  136.5278  154.2004  154.1828 N   0  0  0  0  0  0  0  0  0  0  0  0
  135.6338  154.1546  153.2679 C   0  0  0  0  0  0  0  0  0  0  0  0
  136.6749  152.5220  152.2124 C   0  0  0  0  0  0  0  0  0  0  0  0
  138.4657  150.8609  151.7416 C   0  0  0  0  0  0  0  0  0  0  0  0
  138.6668  151.5451  152.7939 C   0  0  0  0  0  0  0  0  0  0  0  0
  137.6060  153.4115  154.1709 C   0  0  0  0  0  0  0  0  0  0  0  0
  135.6951  153.3243  152.3088 N   0  0  0  0  0  0  0  0  0  0  0  0
  137.0377  151.2726  150.9850 S   0  0  0  0  0  0  0  0  0  0  0  0
  139.8336  151.2590  153.5214 N   0  0  0  0  0  0  0  0  0  0  0  0
  140.0361  151.7603  154.3441 H   0  0  0  0  0  0  0  0  0  0  0  0
  140.4490  150.5571  153.2086 H   0  0  0  0  0  0  0  0  0  0  0  0
  137.8561  154.0561  156.4628 C   0  0  0  0  0  0  0  0  0  0  0  0
  138.3882  154.2936  157.6322 C   0  0  0  0  0  0  0  0  0  0  0  0
  139.7191  154.0380  157.7229 C   0  0  0  0  0  0  0  0  0  0  0  0
  139.8965  153.3783  155.4574 C   0  0  0  0  0  0  0  0  0  0  0  0
  138.5542  153.6307  155.3691 C   0  0  0  0  0  0  0  0  0  0  0  0
  140.4702  153.6182  156.6537 C   0  0  0  0  0  0  0  0  0  0  0  0
  137.9054  155.2909  159.9751 C   0  0  0  0  0  0  0  0  0  0  0  0
  137.4966  154.7578  158.6810 N   0  0  0  0  0  0  0  0  0  0  0  0
  139.0344  155.3552  160.2190 O   0  0  0  0  0  0  0  0  0  0  0  0
  136.5298  154.7081  158.5019 H   0  0  0  0  0  0  0  0  0  0  0  0
  136.9008  155.7688  161.0381 C   0  0  0  0  0  0  0  0  0  0  0  0
  135.9791  156.8418  160.6961 N   0  0  0  0  0  0  0  0  0  0  0  0
  135.2432  157.4807  161.6418 C   0  0  0  0  0  0  0  0  0  0  0  0
  133.9526  157.6009  161.3962 C   0  0  0  0  0  0  0  0  0  0  0  0
  133.4254  157.1525  160.1222 O   0  0  0  0  0  0  0  0  0  0  0  0
  134.4564  157.1214  159.1005 C   0  0  0  0  0  0  0  0  0  0  0  0
  135.7014  157.2669  159.4460 C   0  0  0  0  0  0  0  0  0  0  0  0
  138.6539  148.7413  150.5034 N   0  0  0  0  0  0  0  0  0  0  0  0
  139.2615  149.7707  151.2399 C   0  0  0  0  0  0  0  0  0  0  0  0
  140.3448  149.8181  151.4763 O   0  0  0  0  0  0  0  0  0  0  0  0
  137.6851  148.7637  150.3299 H   0  0  0  0  0  0  0  0  0  0  0  0
  140.1338  148.1288  148.7402 C   0  0  0  0  0  0  0  0  0  0  0  0
  139.4405  147.6694  150.0106 C   0  0  0  0  0  0  0  0  0  0  0  0
  138.4810  146.5465  149.6865 C   0  0  0  0  0  0  0  0  0  0  0  0
  140.4423  147.1858  151.0298 C   0  0  0  0  0  0  0  0  0  0  0  0
  134.2394  155.1987  153.3475 S   0  0  0  0  0  0  0  0  0  0  0  0
  132.8159  154.8583  152.3149 C   0  0  0  0  0  0  0  0  0  0  0  0
 38  3  1  0
 37 35  1  0
 15 14  2  0
 35 34  1  0
  3  2  1  0
 18 16  2  0
 19 23  1  0
 26 25  1  0
 19 21  2  0
  4  1  2  0
  8  3  2  0
  9  4  1  0
  8  4  1  0
 27 26  1  0
  7  1  1  0
  6 10  1  0
  9  5  1  0
 29 24  1  0
 20 14  1  0
  6  1  1  0
 19 20  1  0
 35 30  1  0
 17 13  2  0
  6  5  2  0
 27 28  1  0
  7  2  2  0
 31 30  1  0
 17 16  1  0
 18 15  1  0
 24 23  1  0
 13 14  1  0
  5 31  1  0
 25 24  1  0
 38 39  1  0
 35 36  1  0
  7 17  1  0
 32 31  2  0
 28 29  1  0
 30 33  1  0
 20 22  1  0
 10 11  1  0
 10 12  1  0
M  END
> <minimizedAffinity>
-10.25337

$$$$
55Z_Org43553


 39 42  0  0  0  0  0  0  0  0999 V2000
  137.7175  152.4939  152.9862 C   0  0  0  0  0  0  0  0  0  0  0  0
  136.5480  154.1731  154.0916 N   0  0  0  0  0  0  0  0  0  0  0  0
  135.6175  154.1345  153.2134 C   0  0  0  0  0  0  0  0  0  0  0  0
  136.6237  152.5231  152.0934 C   0  0  0  0  0  0  0  0  0  0  0  0
  138.4030  150.8799  151.5263 C   0  0  0  0  0  0  0  0  0  0  0  0
  138.6432  151.5507  152.5790 C   0  0  0  0  0  0  0  0  0  0  0  0
  137.6293  153.3913  154.0244 C   0  0  0  0  0  0  0  0  0  0  0  0
  135.6441  153.3179  152.2411 N   0  0  0  0  0  0  0  0  0  0  0  0
  136.9429  151.2931  150.8347 S   0  0  0  0  0  0  0  0  0  0  0  0
  139.8405  151.2618  153.2540 N   0  0  0  0  0  0  0  0  0  0  0  0
  140.0737  151.7530  154.0747 H   0  0  0  0  0  0  0  0  0  0  0  0
  140.4465  150.5681  152.9064 H   0  0  0  0  0  0  0  0  0  0  0  0
  137.9579  153.8500  156.3509 C   0  0  0  0  0  0  0  0  0  0  0  0
  138.5363  154.0358  157.5075 C   0  0  0  0  0  0  0  0  0  0  0  0
  139.8891  153.9134  157.5021 C   0  0  0  0  0  0  0  0  0  0  0  0
  139.9881  153.4820  155.1776 C   0  0  0  0  0  0  0  0  0  0  0  0
  138.6246  153.5997  155.1857 C   0  0  0  0  0  0  0  0  0  0  0  0
  140.6093  153.6721  156.3591 C   0  0  0  0  0  0  0  0  0  0  0  0
  136.3224  154.8589  158.5743 C   0  0  0  0  0  0  0  0  0  0  0  0
  137.6709  154.3083  158.6420 N   0  0  0  0  0  0  0  0  0  0  0  0
  135.8785  155.1180  157.5378 O   0  0  0  0  0  0  0  0  0  0  0  0
  138.0267  154.1028  159.5367 H   0  0  0  0  0  0  0  0  0  0  0  0
  135.4607  155.1173  159.8225 C   0  0  0  0  0  0  0  0  0  0  0  0
  135.7267  156.3040  160.6218 N   0  0  0  0  0  0  0  0  0  0  0  0
  136.7976  156.3806  161.4533 C   0  0  0  0  0  0  0  0  0  0  0  0
  136.5544  156.7879  162.6843 C   0  0  0  0  0  0  0  0  0  0  0  0
  135.2168  157.2190  163.0405 O   0  0  0  0  0  0  0  0  0  0  0  0
  134.4643  157.6400  161.8725 C   0  0  0  0  0  0  0  0  0  0  0  0
  134.9388  157.3974  160.6865 C   0  0  0  0  0  0  0  0  0  0  0  0
  138.5421  148.6611  150.4687 N   0  0  0  0  0  0  0  0  0  0  0  0
  139.1837  149.8017  150.9772 C   0  0  0  0  0  0  0  0  0  0  0  0
  140.2835  149.9492  150.9912 O   0  0  0  0  0  0  0  0  0  0  0  0
  137.5599  148.5972  150.4873 H   0  0  0  0  0  0  0  0  0  0  0  0
  139.9494  148.0823  148.6360 C   0  0  0  0  0  0  0  0  0  0  0  0
  139.3138  147.6013  149.9283 C   0  0  0  0  0  0  0  0  0  0  0  0
  138.3486  146.4761  149.6302 C   0  0  0  0  0  0  0  0  0  0  0  0
  140.3612  147.1112  150.8974 C   0  0  0  0  0  0  0  0  0  0  0  0
  134.2216  155.1686  153.3647 S   0  0  0  0  0  0  0  0  0  0  0  0
  132.7454  154.8114  152.4151 C   0  0  0  0  0  0  0  0  0  0  0  0
 38  3  1  0
 37 35  1  0
 15 14  2  0
 35 34  1  0
  3  2  1  0
 18 16  2  0
 19 23  1  0
 26 25  1  0
 19 21  2  0
  4  1  2  0
  8  3  2  0
  9  4  1  0
  8  4  1  0
 27 26  1  0
  7  1  1  0
  6 10  1  0
  9  5  1  0
 29 24  1  0
 20 14  1  0
  6  1  1  0
 19 20  1  0
 35 30  1  0
 17 13  2  0
  6  5  2  0
 27 28  1  0
  7  2  2  0
 31 30  1  0
 17 16  1  0
 18 15  1  0
 24 23  1  0
 13 14  1  0
  5 31  1  0
 25 24  1  0
 38 39  1  0
 35 36  1  0
  7 17  1  0
 32 31  2  0
 28 29  1  0
 30 33  1  0
 20 22  1  0
 10 11  1  0
 10 12  1  0
M  END
> <minimizedAffinity>
-10.08368

$$$$
55Z_Org43553


 39 42  0  0  0  0  0  0  0  0999 V2000
  138.3433  152.4753  153.9933 C   0  0  0  0  0  0  0  0  0  0  0  0
  138.2968  153.8997  155.8312 N   0  0  0  0  0  0  0  0  0  0  0  0
  139.2806  153.2792  156.3657 C   0  0  0  0  0  0  0  0  0  0  0  0
  139.4355  151.8836  154.6652 C   0  0  0  0  0  0  0  0  0  0  0  0
  138.8394  150.8302  152.4920 C   0  0  0  0  0  0  0  0  0  0  0  0
  138.0985  151.8153  152.8029 C   0  0  0  0  0  0  0  0  0  0  0  0
  137.7736  153.5364  154.6568 C   0  0  0  0  0  0  0  0  0  0  0  0
  139.8501  152.3002  155.7911 N   0  0  0  0  0  0  0  0  0  0  0  0
  140.0153  150.5390  153.6381 S   0  0  0  0  0  0  0  0  0  0  0  0
  137.0886  152.1604  151.8901 N   0  0  0  0  0  0  0  0  0  0  0  0
  136.4875  152.9157  152.0835 H   0  0  0  0  0  0  0  0  0  0  0  0
  136.9817  151.6470  151.0569 H   0  0  0  0  0  0  0  0  0  0  0  0
  136.1051  155.1502  155.2421 C   0  0  0  0  0  0  0  0  0  0  0  0
  135.1270  156.0113  155.1477 C   0  0  0  0  0  0  0  0  0  0  0  0
  134.6343  156.1893  153.8945 C   0  0  0  0  0  0  0  0  0  0  0  0
  136.0962  154.5955  152.9343 C   0  0  0  0  0  0  0  0  0  0  0  0
  136.5956  154.4215  154.1967 C   0  0  0  0  0  0  0  0  0  0  0  0
  135.0838  155.4773  152.8107 C   0  0  0  0  0  0  0  0  0  0  0  0
  134.0829  156.0585  157.5193 C   0  0  0  0  0  0  0  0  0  0  0  0
  134.7217  156.6861  156.3686 N   0  0  0  0  0  0  0  0  0  0  0  0
  133.8603  154.9238  157.4820 O   0  0  0  0  0  0  0  0  0  0  0  0
  134.8937  157.6539  156.4241 H   0  0  0  0  0  0  0  0  0  0  0  0
  133.6845  156.8391  158.7840 C   0  0  0  0  0  0  0  0  0  0  0  0
  134.7158  157.1660  159.7573 N   0  0  0  0  0  0  0  0  0  0  0  0
  136.0229  156.8674  159.5415 C   0  0  0  0  0  0  0  0  0  0  0  0
  136.6518  156.2502  160.5234 C   0  0  0  0  0  0  0  0  0  0  0  0
  135.9640  156.0264  161.7799 O   0  0  0  0  0  0  0  0  0  0  0  0
  134.8750  156.9682  161.9660 C   0  0  0  0  0  0  0  0  0  0  0  0
  134.5015  157.7165  160.9704 C   0  0  0  0  0  0  0  0  0  0  0  0
  139.0582  150.6948  150.0435 N   0  0  0  0  0  0  0  0  0  0  0  0
  138.8120  150.0637  151.2733 C   0  0  0  0  0  0  0  0  0  0  0  0
  138.5910  148.9825  151.3906 O   0  0  0  0  0  0  0  0  0  0  0  0
  139.2491  151.6601  150.0132 H   0  0  0  0  0  0  0  0  0  0  0  0
  137.9986  148.8342  148.9996 C   0  0  0  0  0  0  0  0  0  0  0  0
  139.0309  149.9370  148.8454 C   0  0  0  0  0  0  0  0  0  0  0  0
  140.4058  149.3263  148.6924 C   0  0  0  0  0  0  0  0  0  0  0  0
  138.7327  150.7933  147.6396 C   0  0  0  0  0  0  0  0  0  0  0  0
  139.9311  153.8117  157.8934 S   0  0  0  0  0  0  0  0  0  0  0  0
  138.8767  153.8530  159.3409 C   0  0  0  0  0  0  0  0  0  0  0  0
 38  3  1  0
 37 35  1  0
 15 14  2  0
 35 34  1  0
  3  2  1  0
 18 16  2  0
 19 23  1  0
 26 25  1  0
 19 21  2  0
  4  1  2  0
  8  3  2  0
  9  4  1  0
  8  4  1  0
 27 26  1  0
  7  1  1  0
  6 10  1  0
  9  5  1  0
 29 24  1  0
 20 14  1  0
  6  1  1  0
 19 20  1  0
 35 30  1  0
 17 13  2  0
  6  5  2  0
 27 28  1  0
  7  2  2  0
 31 30  1  0
 17 16  1  0
 18 15  1  0
 24 23  1  0
 13 14  1  0
  5 31  1  0
 25 24  1  0
 38 39  1  0
 35 36  1  0
  7 17  1  0
 32 31  2  0
 28 29  1  0
 30 33  1  0
 20 22  1  0
 10 11  1  0
 10 12  1  0
M  END
> <minimizedAffinity>
-9.64391

$$$$
55Z_Org43553


 39 42  0  0  0  0  0  0  0  0999 V2000
  136.7610  154.9033  156.6761 C   0  0  0  0  0  0  0  0  0  0  0  0
  137.8842  153.9483  154.8773 N   0  0  0  0  0  0  0  0  0  0  0  0
  138.8179  153.5361  155.6499 C   0  0  0  0  0  0  0  0  0  0  0  0
  137.8326  154.3806  157.4330 C   0  0  0  0  0  0  0  0  0  0  0  0
  136.1247  155.6254  158.7450 C   0  0  0  0  0  0  0  0  0  0  0  0
  135.8745  155.5729  157.4997 C   0  0  0  0  0  0  0  0  0  0  0  0
  136.8398  154.6497  155.3269 C   0  0  0  0  0  0  0  0  0  0  0  0
  138.7891  153.7336  156.9041 N   0  0  0  0  0  0  0  0  0  0  0  0
  137.5325  154.8234  159.1398 S   0  0  0  0  0  0  0  0  0  0  0  0
  134.6950  156.1985  157.0643 N   0  0  0  0  0  0  0  0  0  0  0  0
  134.4550  156.1866  156.1096 H   0  0  0  0  0  0  0  0  0  0  0  0
  134.1080  156.6489  157.7139 H   0  0  0  0  0  0  0  0  0  0  0  0
  135.7737  154.0819  153.2601 C   0  0  0  0  0  0  0  0  0  0  0  0
  134.9850  154.1266  152.2195 C   0  0  0  0  0  0  0  0  0  0  0  0
  134.1549  155.2006  152.1707 C   0  0  0  0  0  0  0  0  0  0  0  0
  134.9999  156.1304  154.1758 C   0  0  0  0  0  0  0  0  0  0  0  0
  135.8317  155.0447  154.2267 C   0  0  0  0  0  0  0  0  0  0  0  0
  134.1776  156.2012  153.1097 C   0  0  0  0  0  0  0  0  0  0  0  0
  136.2115  152.1338  151.1052 C   0  0  0  0  0  0  0  0  0  0  0  0
  135.0679  153.0211  151.2806 N   0  0  0  0  0  0  0  0  0  0  0  0
  137.1541  152.3061  151.7535 O   0  0  0  0  0  0  0  0  0  0  0  0
  134.2814  152.8564  150.7117 H   0  0  0  0  0  0  0  0  0  0  0  0
  136.2253  150.9774  150.0903 C   0  0  0  0  0  0  0  0  0  0  0  0
  137.5031  150.5345  149.5529 N   0  0  0  0  0  0  0  0  0  0  0  0
  138.0110  151.0466  148.4023 C   0  0  0  0  0  0  0  0  0  0  0  0
  138.4290  150.1722  147.5072 C   0  0  0  0  0  0  0  0  0  0  0  0
  138.4215  148.7598  147.8341 O   0  0  0  0  0  0  0  0  0  0  0  0
  138.4546  148.5452  149.2695 C   0  0  0  0  0  0  0  0  0  0  0  0
  138.2723  149.5537  150.0697 C   0  0  0  0  0  0  0  0  0  0  0  0
  135.7934  156.2901  161.0922 N   0  0  0  0  0  0  0  0  0  0  0  0
  135.3013  156.1932  159.7809 C   0  0  0  0  0  0  0  0  0  0  0  0
  134.2935  156.5313  159.4622 O   0  0  0  0  0  0  0  0  0  0  0  0
  136.7000  155.9702  161.3045 H   0  0  0  0  0  0  0  0  0  0  0  0
  135.8778  157.5821  163.0917 C   0  0  0  0  0  0  0  0  0  0  0  0
  134.9801  156.8501  162.1098 C   0  0  0  0  0  0  0  0  0  0  0  0
  134.3058  155.6902  162.8074 C   0  0  0  0  0  0  0  0  0  0  0  0
  133.9252  157.7718  161.5495 C   0  0  0  0  0  0  0  0  0  0  0  0
  140.1477  152.6098  155.0061 S   0  0  0  0  0  0  0  0  0  0  0  0
  139.8195  151.2167  153.9291 C   0  0  0  0  0  0  0  0  0  0  0  0
 38  3  1  0
 37 35  1  0
 15 14  2  0
 35 34  1  0
  3  2  1  0
 18 16  2  0
 19 23  1  0
 26 25  1  0
 19 21  2  0
  4  1  2  0
  8  3  2  0
  9  4  1  0
  8  4  1  0
 27 26  1  0
  7  1  1  0
  6 10  1  0
  9  5  1  0
 29 24  1  0
 20 14  1  0
  6  1  1  0
 19 20  1  0
 35 30  1  0
 17 13  2  0
  6  5  2  0
 27 28  1  0
  7  2  2  0
 31 30  1  0
 17 16  1  0
 18 15  1  0
 24 23  1  0
 13 14  1  0
  5 31  1  0
 25 24  1  0
 38 39  1  0
 35 36  1  0
  7 17  1  0
 32 31  2  0
 28 29  1  0
 30 33  1  0
 20 22  1  0
 10 11  1  0
 10 12  1  0
M  END
> <minimizedAffinity>
-9.45365

$$$$
55Z_Org43553


 39 42  0  0  0  0  0  0  0  0999 V2000
  137.4424  153.0399  153.9064 C   0  0  0  0  0  0  0  0  0  0  0  0
  136.0914  154.7914  154.6248 N   0  0  0  0  0  0  0  0  0  0  0  0
  135.4390  154.7699  153.5237 C   0  0  0  0  0  0  0  0  0  0  0  0
  136.6404  153.0924  152.7452 C   0  0  0  0  0  0  0  0  0  0  0  0
  138.4299  151.3648  152.7125 C   0  0  0  0  0  0  0  0  0  0  0  0
  138.4003  152.0501  153.7827 C   0  0  0  0  0  0  0  0  0  0  0  0
  137.1120  153.9646  154.8690 C   0  0  0  0  0  0  0  0  0  0  0  0
  135.6957  153.9299  152.6064 N   0  0  0  0  0  0  0  0  0  0  0  0
  137.2382  151.8207  151.6386 S   0  0  0  0  0  0  0  0  0  0  0  0
  139.3499  151.7287  154.7663 N   0  0  0  0  0  0  0  0  0  0  0  0
  139.3695  152.2294  155.6137 H   0  0  0  0  0  0  0  0  0  0  0  0
  139.9958  151.0028  154.6084 H   0  0  0  0  0  0  0  0  0  0  0  0
  136.8172  154.5390  157.1742 C   0  0  0  0  0  0  0  0  0  0  0  0
  137.0625  154.7471  158.4405 C   0  0  0  0  0  0  0  0  0  0  0  0
  138.3428  154.5094  158.8266 C   0  0  0  0  0  0  0  0  0  0  0  0
  139.0480  153.9256  156.6446 C   0  0  0  0  0  0  0  0  0  0  0  0
  137.7562  154.1599  156.2582 C   0  0  0  0  0  0  0  0  0  0  0  0
  139.3276  154.1359  157.9467 C   0  0  0  0  0  0  0  0  0  0  0  0
  135.4887  156.5352  159.4620 C   0  0  0  0  0  0  0  0  0  0  0  0
  135.9446  155.1635  159.2695 N   0  0  0  0  0  0  0  0  0  0  0  0
  136.0532  157.3898  158.9241 O   0  0  0  0  0  0  0  0  0  0  0  0
  135.4505  154.4564  159.7439 H   0  0  0  0  0  0  0  0  0  0  0  0
  134.2903  156.9009  160.3550 C   0  0  0  0  0  0  0  0  0  0  0  0
  134.4974  157.0128  161.7911 N   0  0  0  0  0  0  0  0  0  0  0  0
  134.1712  158.1398  162.4748 C   0  0  0  0  0  0  0  0  0  0  0  0
  135.0972  158.6240  163.2802 C   0  0  0  0  0  0  0  0  0  0  0  0
  136.3340  157.8905  163.4656 O   0  0  0  0  0  0  0  0  0  0  0  0
  136.1687  156.4814  163.1577 C   0  0  0  0  0  0  0  0  0  0  0  0
  135.0788  156.0798  162.5735 C   0  0  0  0  0  0  0  0  0  0  0  0
  139.6881  150.0049  151.0912 N   0  0  0  0  0  0  0  0  0  0  0  0
  139.2815  150.2428  152.4138 C   0  0  0  0  0  0  0  0  0  0  0  0
  139.5730  149.6163  153.2822 O   0  0  0  0  0  0  0  0  0  0  0  0
  139.3917  150.6036  150.3680 H   0  0  0  0  0  0  0  0  0  0  0  0
  139.8515  147.6385  151.3098 C   0  0  0  0  0  0  0  0  0  0  0  0
  140.5271  148.8994  150.8006 C   0  0  0  0  0  0  0  0  0  0  0  0
  141.8148  149.1264  151.5602 C   0  0  0  0  0  0  0  0  0  0  0  0
  140.8339  148.7922  149.3273 C   0  0  0  0  0  0  0  0  0  0  0  0
  134.1047  155.8635  153.2703 S   0  0  0  0  0  0  0  0  0  0  0  0
  132.5943  155.2615  152.5187 C   0  0  0  0  0  0  0  0  0  0  0  0
 38  3  1  0
 37 35  1  0
 15 14  2  0
 35 34  1  0
  3  2  1  0
 18 16  2  0
 19 23  1  0
 26 25  1  0
 19 21  2  0
  4  1  2  0
  8  3  2  0
  9  4  1  0
  8  4  1  0
 27 26  1  0
  7  1  1  0
  6 10  1  0
  9  5  1  0
 29 24  1  0
 20 14  1  0
  6  1  1  0
 19 20  1  0
 35 30  1  0
 17 13  2  0
  6  5  2  0
 27 28  1  0
  7  2  2  0
 31 30  1  0
 17 16  1  0
 18 15  1  0
 24 23  1  0
 13 14  1  0
  5 31  1  0
 25 24  1  0
 38 39  1  0
 35 36  1  0
  7 17  1  0
 32 31  2  0
 28 29  1  0
 30 33  1  0
 20 22  1  0
 10 11  1  0
 10 12  1  0
M  END
> <minimizedAffinity>
-9.38280

$$$$
55Z_Org43553


 39 42  0  0  0  0  0  0  0  0999 V2000
  138.1172  151.7308  152.9414 C   0  0  0  0  0  0  0  0  0  0  0  0
  140.0421  150.5026  153.3832 N   0  0  0  0  0  0  0  0  0  0  0  0
  139.9088  149.8563  152.2864 C   0  0  0  0  0  0  0  0  0  0  0  0
  138.0848  150.9736  151.7498 C   0  0  0  0  0  0  0  0  0  0  0  0
  136.2208  152.5991  152.0161 C   0  0  0  0  0  0  0  0  0  0  0  0
  137.0410  152.5982  152.9873 C   0  0  0  0  0  0  0  0  0  0  0  0
  139.1722  151.4384  153.7735 C   0  0  0  0  0  0  0  0  0  0  0  0
  138.9594  150.0940  151.4770 N   0  0  0  0  0  0  0  0  0  0  0  0
  136.6477  151.5084  150.8290 S   0  0  0  0  0  0  0  0  0  0  0  0
  136.7855  153.5010  154.0322 N   0  0  0  0  0  0  0  0  0  0  0  0
  137.3904  153.5401  154.8080 H   0  0  0  0  0  0  0  0  0  0  0  0
  136.0014  154.0948  153.9890 H   0  0  0  0  0  0  0  0  0  0  0  0
  138.5542  152.9810  155.4968 C   0  0  0  0  0  0  0  0  0  0  0  0
  138.5642  153.6633  156.6109 C   0  0  0  0  0  0  0  0  0  0  0  0
  139.6064  153.3977  157.4405 C   0  0  0  0  0  0  0  0  0  0  0  0
  140.5775  151.8291  155.9587 C   0  0  0  0  0  0  0  0  0  0  0  0
  139.5236  152.0935  155.1264 C   0  0  0  0  0  0  0  0  0  0  0  0
  140.6121  152.5227  157.1144 C   0  0  0  0  0  0  0  0  0  0  0  0
  136.8516  154.8845  158.1251 C   0  0  0  0  0  0  0  0  0  0  0  0
  137.4576  154.5774  156.8349 N   0  0  0  0  0  0  0  0  0  0  0  0
  137.2640  154.3629  159.0719 O   0  0  0  0  0  0  0  0  0  0  0  0
  137.0833  155.0302  156.0448 H   0  0  0  0  0  0  0  0  0  0  0  0
  135.6810  155.8699  158.2862 C   0  0  0  0  0  0  0  0  0  0  0  0
  135.1084  156.0644  159.6099 N   0  0  0  0  0  0  0  0  0  0  0  0
  134.2359  157.0719  159.8704 C   0  0  0  0  0  0  0  0  0  0  0  0
  134.4943  157.8092  160.9334 C   0  0  0  0  0  0  0  0  0  0  0  0
  135.6011  157.4491  161.7979 O   0  0  0  0  0  0  0  0  0  0  0  0
  135.9396  156.0430  161.6718 C   0  0  0  0  0  0  0  0  0  0  0  0
  135.4146  155.3443  160.7091 C   0  0  0  0  0  0  0  0  0  0  0  0
  135.0394  154.7066  152.4893 N   0  0  0  0  0  0  0  0  0  0  0  0
  135.0912  153.4712  151.8242 C   0  0  0  0  0  0  0  0  0  0  0  0
  134.3059  153.0959  151.1357 O   0  0  0  0  0  0  0  0  0  0  0  0
  135.7738  154.9772  153.0865 H   0  0  0  0  0  0  0  0  0  0  0  0
  132.6600  154.7286  152.3796 C   0  0  0  0  0  0  0  0  0  0  0  0
  133.9258  155.5632  152.2978 C   0  0  0  0  0  0  0  0  0  0  0  0
  134.0628  156.1409  150.9070 C   0  0  0  0  0  0  0  0  0  0  0  0
  133.8976  156.6896  153.3011 C   0  0  0  0  0  0  0  0  0  0  0  0
  141.0874  148.6575  151.8230 S   0  0  0  0  0  0  0  0  0  0  0  0
  140.6099  147.3187  150.7330 C   0  0  0  0  0  0  0  0  0  0  0  0
 38  3  1  0
 37 35  1  0
 15 14  2  0
 35 34  1  0
  3  2  1  0
 18 16  2  0
 19 23  1  0
 26 25  1  0
 19 21  2  0
  4  1  2  0
  8  3  2  0
  9  4  1  0
  8  4  1  0
 27 26  1  0
  7  1  1  0
  6 10  1  0
  9  5  1  0
 29 24  1  0
 20 14  1  0
  6  1  1  0
 19 20  1  0
 35 30  1  0
 17 13  2  0
  6  5  2  0
 27 28  1  0
  7  2  2  0
 31 30  1  0
 17 16  1  0
 18 15  1  0
 24 23  1  0
 13 14  1  0
  5 31  1  0
 25 24  1  0
 38 39  1  0
 35 36  1  0
  7 17  1  0
 32 31  2  0
 28 29  1  0
 30 33  1  0
 20 22  1  0
 10 11  1  0
 10 12  1  0
M  END
> <minimizedAffinity>
-9.27671

$$$$
55Z_Org43553


 39 42  0  0  0  0  0  0  0  0999 V2000
  136.8033  153.0627  154.0454 C   0  0  0  0  0  0  0  0  0  0  0  0
  136.1033  152.3197  151.9556 N   0  0  0  0  0  0  0  0  0  0  0  0
  135.0105  152.9776  152.0626 C   0  0  0  0  0  0  0  0  0  0  0  0
  135.5778  153.7645  154.0431 C   0  0  0  0  0  0  0  0  0  0  0  0
  136.9636  154.0709  156.0860 C   0  0  0  0  0  0  0  0  0  0  0  0
  137.4905  153.3023  155.2214 C   0  0  0  0  0  0  0  0  0  0  0  0
  137.0301  152.3090  152.9178 C   0  0  0  0  0  0  0  0  0  0  0  0
  134.7557  153.6976  153.0773 N   0  0  0  0  0  0  0  0  0  0  0  0
  135.4884  154.6659  155.5853 S   0  0  0  0  0  0  0  0  0  0  0  0
  138.7495  152.7653  155.5356 N   0  0  0  0  0  0  0  0  0  0  0  0
  139.2009  152.1642  154.8998 H   0  0  0  0  0  0  0  0  0  0  0  0
  139.1808  152.9901  156.3916 H   0  0  0  0  0  0  0  0  0  0  0  0
  138.1968  150.9824  151.3023 C   0  0  0  0  0  0  0  0  0  0  0  0
  139.1181  150.2548  150.7291 C   0  0  0  0  0  0  0  0  0  0  0  0
  140.2218  150.0208  151.4855 C   0  0  0  0  0  0  0  0  0  0  0  0
  139.3788  151.2129  153.3476 C   0  0  0  0  0  0  0  0  0  0  0  0
  138.2699  151.4527  152.5822 C   0  0  0  0  0  0  0  0  0  0  0  0
  140.3435  150.4616  152.7795 C   0  0  0  0  0  0  0  0  0  0  0  0
  138.7508  150.6999  148.2024 C   0  0  0  0  0  0  0  0  0  0  0  0
  138.8663  149.8262  149.3641 N   0  0  0  0  0  0  0  0  0  0  0  0
  138.8580  151.8420  148.3523 O   0  0  0  0  0  0  0  0  0  0  0  0
  138.7645  148.8592  149.2095 H   0  0  0  0  0  0  0  0  0  0  0  0
  138.4865  150.1719  146.7816 C   0  0  0  0  0  0  0  0  0  0  0  0
  138.4692  151.1185  145.6763 N   0  0  0  0  0  0  0  0  0  0  0  0
  139.3233  152.1730  145.6247 C   0  0  0  0  0  0  0  0  0  0  0  0
  138.7843  153.3505  145.3727 C   0  0  0  0  0  0  0  0  0  0  0  0
  137.3691  153.4356  145.0694 O   0  0  0  0  0  0  0  0  0  0  0  0
  136.8547  152.1732  144.5699 C   0  0  0  0  0  0  0  0  0  0  0  0
  137.5945  151.1069  144.6490 C   0  0  0  0  0  0  0  0  0  0  0  0
  136.7084  154.7866  158.4278 N   0  0  0  0  0  0  0  0  0  0  0  0
  137.5390  154.5167  157.3285 C   0  0  0  0  0  0  0  0  0  0  0  0
  138.6438  154.6204  157.3364 O   0  0  0  0  0  0  0  0  0  0  0  0
  135.7336  154.6718  158.3503 H   0  0  0  0  0  0  0  0  0  0  0  0
  138.3703  154.2475  160.0470 C   0  0  0  0  0  0  0  0  0  0  0  0
  137.2783  155.2250  159.6499 C   0  0  0  0  0  0  0  0  0  0  0  0
  136.1693  155.1906  160.6774 C   0  0  0  0  0  0  0  0  0  0  0  0
  137.8187  156.6302  159.5517 C   0  0  0  0  0  0  0  0  0  0  0  0
  133.8461  152.9660  150.7646 S   0  0  0  0  0  0  0  0  0  0  0  0
  133.2522  151.4043  150.1191 C   0  0  0  0  0  0  0  0  0  0  0  0
 38  3  1  0
 37 35  1  0
 15 14  2  0
 35 34  1  0
  3  2  1  0
 18 16  2  0
 19 23  1  0
 26 25  1  0
 19 21  2  0
  4  1  2  0
  8  3  2  0
  9  4  1  0
  8  4  1  0
 27 26  1  0
  7  1  1  0
  6 10  1  0
  9  5  1  0
 29 24  1  0
 20 14  1  0
  6  1  1  0
 19 20  1  0
 35 30  1  0
 17 13  2  0
  6  5  2  0
 27 28  1  0
  7  2  2  0
 31 30  1  0
 17 16  1  0
 18 15  1  0
 24 23  1  0
 13 14  1  0
  5 31  1  0
 25 24  1  0
 38 39  1  0
 35 36  1  0
  7 17  1  0
 32 31  2  0
 28 29  1  0
 30 33  1  0
 20 22  1  0
 10 11  1  0
 10 12  1  0
M  END
> <minimizedAffinity>
-9.21535

$$$$
