55Z_Org43553


 39 42  0  0  0  0  0  0  0  0999 V2000
  138.2747  152.0314  153.1147 C   0  0  0  0  0  0  0  0  0  0  0  0
  138.3060  153.6617  154.7732 N   0  0  0  0  0  0  0  0  0  0  0  0
  139.3487  153.1383  155.2997 C   0  0  0  0  0  0  0  0  0  0  0  0
  139.4344  151.5563  153.7657 C   0  0  0  0  0  0  0  0  0  0  0  0
  138.7243  150.2355  151.7810 C   0  0  0  0  0  0  0  0  0  0  0  0
  137.9705  151.2281  152.0309 C   0  0  0  0  0  0  0  0  0  0  0  0
  137.7140  153.1464  153.6920 C   0  0  0  0  0  0  0  0  0  0  0  0
  139.9126  152.1154  154.8010 N   0  0  0  0  0  0  0  0  0  0  0  0
  139.9899  150.1172  152.8605 S   0  0  0  0  0  0  0  0  0  0  0  0
  136.8849  151.4325  151.1637 N   0  0  0  0  0  0  0  0  0  0  0  0
  136.2708  152.1872  151.3132 H   0  0  0  0  0  0  0  0  0  0  0  0
  136.7382  150.8210  150.4061 H   0  0  0  0  0  0  0  0  0  0  0  0
  135.9265  154.6335  154.2618 C   0  0  0  0  0  0  0  0  0  0  0  0
  134.8860  155.4168  154.1590 C   0  0  0  0  0  0  0  0  0  0  0  0
  134.3832  155.5462  152.9039 C   0  0  0  0  0  0  0  0  0  0  0  0
  135.9636  154.0602  151.9589 C   0  0  0  0  0  0  0  0  0  0  0  0
  136.4728  153.9354  153.2231 C   0  0  0  0  0  0  0  0  0  0  0  0
  134.8873  154.8613  151.8267 C   0  0  0  0  0  0  0  0  0  0  0  0
  135.2301  156.3088  156.5680 C   0  0  0  0  0  0  0  0  0  0  0  0
  134.4285  156.0693  155.3737 N   0  0  0  0  0  0  0  0  0  0  0  0
  136.3305  155.9519  156.5805 O   0  0  0  0  0  0  0  0  0  0  0  0
  133.4936  156.3772  155.3923 H   0  0  0  0  0  0  0  0  0  0  0  0
  134.6768  157.0123  157.8196 C   0  0  0  0  0  0  0  0  0  0  0  0
  134.9121  156.4079  159.1224 N   0  0  0  0  0  0  0  0  0  0  0  0
  135.2570  157.1526  160.2042 C   0  0  0  0  0  0  0  0  0  0  0  0
  136.2974  156.7307  160.8972 C   0  0  0  0  0  0  0  0  0  0  0  0
  136.9303  155.4765  160.5390 O   0  0  0  0  0  0  0  0  0  0  0  0
  136.0198  154.6086  159.8141 C   0  0  0  0  0  0  0  0  0  0  0  0
  134.8877  155.0852  159.3879 C   0  0  0  0  0  0  0  0  0  0  0  0
  139.4683  148.1978  150.6168 N   0  0  0  0  0  0  0  0  0  0  0  0
  138.6387  149.3295  150.6650 C   0  0  0  0  0  0  0  0  0  0  0  0
  137.8931  149.5946  149.8870 O   0  0  0  0  0  0  0  0  0  0  0  0
  140.1083  148.0231  151.3442 H   0  0  0  0  0  0  0  0  0  0  0  0
  138.1576  146.4289  149.7073 C   0  0  0  0  0  0  0  0  0  0  0  0
  139.3812  147.3074  149.5166 C   0  0  0  0  0  0  0  0  0  0  0  0
  140.6289  146.4539  149.5555 C   0  0  0  0  0  0  0  0  0  0  0  0
  139.3227  148.0389  148.1984 C   0  0  0  0  0  0  0  0  0  0  0  0
  140.0866  153.8672  156.7016 S   0  0  0  0  0  0  0  0  0  0  0  0
  139.2811  153.7385  158.2963 C   0  0  0  0  0  0  0  0  0  0  0  0
 38  3  1  0
 37 35  1  0
 15 14  2  0
 35 34  1  0
  3  2  1  0
 18 16  2  0
 19 23  1  0
 26 25  1  0
 19 21  2  0
  4  1  2  0
  8  3  2  0
  9  4  1  0
  8  4  1  0
 27 26  1  0
  7  1  1  0
  6 10  1  0
  9  5  1  0
 29 24  1  0
 20 14  1  0
  6  1  1  0
 19 20  1  0
 35 30  1  0
 17 13  2  0
  6  5  2  0
 27 28  1  0
  7  2  2  0
 31 30  1  0
 17 16  1  0
 18 15  1  0
 24 23  1  0
 13 14  1  0
  5 31  1  0
 25 24  1  0
 38 39  1  0
 35 36  1  0
  7 17  1  0
 32 31  2  0
 28 29  1  0
 30 33  1  0
 20 22  1  0
 10 11  1  0
 10 12  1  0
M  END
> <minimizedAffinity>
-9.97898

> <minimizedRMSD>
1.31699

$$$$
